*SPEF "ieee 1481-1999"
*DESIGN "fakeram7_256x32"
*DATE "18:14:49 Sunday March 23, 2025"
*VENDOR "The OpenROAD Project"
*PROGRAM "OpenROAD"
*VERSION "v2.0-19351-g6c51970ad"
*DESIGN_FLOW "NAME_SCOPE LOCAL" "PIN_CAP NONE"
*DIVIDER /
*DELIMITER :
*BUS_DELIMITER []
*T_UNIT 1 NS
*C_UNIT 1 PF
*R_UNIT 1 OHM
*L_UNIT 1 HENRY

*NAME_MAP
*1 _000_
*2 _001_
*3 _002_
*4 _003_
*5 _004_
*6 _005_
*7 _006_
*8 _007_
*9 _008_
*10 _009_
*11 _010_
*12 _011_
*13 _012_
*14 _013_
*15 _014_
*16 _015_
*17 _016_
*18 _017_
*19 _018_
*20 _019_
*21 _020_
*22 _021_
*23 _022_
*24 _023_
*25 _024_
*26 _025_
*27 _026_
*28 _027_
*29 _028_
*30 _029_
*31 _030_
*32 _031_
*33 _032_
*34 _033_
*35 _034_
*36 _035_
*37 _036_
*38 _037_
*39 _038_
*40 _039_
*41 _040_
*42 _041_
*43 _042_
*44 _043_
*45 _044_
*46 _045_
*47 _046_
*48 _047_
*49 _048_
*50 _049_
*51 _050_
*52 _051_
*53 _052_
*54 _053_
*55 _054_
*56 _055_
*57 _056_
*58 _057_
*59 _058_
*60 _059_
*61 _060_
*62 _061_
*63 _062_
*64 _063_
*65 _064_
*66 _065_
*67 _066_
*68 _067_
*69 _068_
*70 _069_
*71 _070_
*72 _071_
*73 _072_
*74 _073_
*75 _074_
*76 _075_
*77 _076_
*78 _077_
*79 _078_
*80 _079_
*81 _080_
*82 _081_
*83 _082_
*84 _083_
*85 _084_
*86 _085_
*87 _086_
*88 _087_
*89 _088_
*90 _089_
*91 _090_
*92 _091_
*93 _092_
*94 _093_
*95 _094_
*96 _095_
*97 _096_
*98 _097_
*99 _098_
*100 _099_
*101 _100_
*102 _101_
*103 _102_
*104 _103_
*105 _104_
*106 _105_
*107 _106_
*108 _107_
*109 _108_
*110 _109_
*111 _110_
*112 _111_
*113 _112_
*114 _113_
*115 _114_
*116 _115_
*117 _116_
*118 _117_
*119 _118_
*120 _119_
*121 _120_
*122 _121_
*123 _122_
*124 _123_
*125 _124_
*126 _125_
*127 _126_
*128 _127_
*129 _128_
*130 _129_
*131 _130_
*132 _131_
*133 _132_
*134 _133_
*135 _134_
*136 _135_
*137 _136_
*138 _137_
*139 _138_
*140 _139_
*141 _140_
*142 _141_
*143 _142_
*144 _143_
*145 _144_
*146 _145_
*147 _146_
*148 _147_
*149 _148_
*150 _149_
*151 _150_
*152 _151_
*153 _152_
*154 _153_
*155 _154_
*156 _155_
*157 _156_
*158 _157_
*159 _158_
*160 _159_
*161 _160_
*162 _161_
*163 _162_
*164 _163_
*165 _164_
*166 _165_
*167 _166_
*168 _167_
*169 _168_
*170 _169_
*171 _170_
*172 _171_
*173 _172_
*174 _173_
*175 _174_
*176 _175_
*177 _176_
*178 _177_
*179 _178_
*180 _179_
*181 _180_
*182 _181_
*183 _182_
*184 _183_
*185 _184_
*186 _185_
*187 _186_
*188 _187_
*189 _188_
*190 _189_
*191 _190_
*192 _191_
*193 _192_
*194 _193_
*195 _194_
*196 _195_
*197 _196_
*198 _197_
*199 _198_
*200 _199_
*201 _200_
*202 _201_
*203 _202_
*204 _203_
*205 _204_
*206 _205_
*207 _206_
*208 _207_
*209 _208_
*210 _209_
*211 _210_
*212 _211_
*213 _212_
*214 _213_
*215 _214_
*216 _215_
*217 _216_
*218 _217_
*219 _218_
*220 _219_
*221 _220_
*222 _221_
*223 _222_
*224 _223_
*225 _224_
*226 _225_
*227 _226_
*228 _227_
*229 _228_
*230 _229_
*231 _230_
*232 _231_
*233 _232_
*234 _233_
*235 _234_
*236 _235_
*237 _236_
*238 _237_
*239 addr_in[0]
*240 addr_in[1]
*241 addr_in[2]
*242 addr_in[3]
*243 addr_in[4]
*244 addr_in[5]
*245 addr_in[6]
*246 addr_in[7]
*247 ce_in
*248 clk
*249 net35
*250 net36
*251 net37
*252 net38
*253 net39
*254 net40
*255 net41
*256 net42
*257 net43
*258 net44
*259 net45
*260 net46
*261 net47
*262 net48
*263 net49
*264 net50
*265 net51
*266 net52
*267 net53
*268 net54
*269 net55
*270 net56
*271 net57
*272 net58
*273 net59
*274 net60
*275 net61
*276 net62
*277 net63
*278 net64
*279 net65
*280 net66
*281 wd_in[0]
*282 wd_in[10]
*283 wd_in[11]
*284 wd_in[12]
*285 wd_in[13]
*286 wd_in[14]
*287 wd_in[15]
*288 wd_in[16]
*289 wd_in[17]
*290 wd_in[18]
*291 wd_in[19]
*292 wd_in[1]
*293 wd_in[20]
*294 wd_in[21]
*295 wd_in[22]
*296 wd_in[23]
*297 wd_in[24]
*298 wd_in[25]
*299 wd_in[26]
*300 wd_in[27]
*301 wd_in[28]
*302 wd_in[29]
*303 wd_in[2]
*304 wd_in[30]
*305 wd_in[31]
*306 wd_in[3]
*307 wd_in[4]
*308 wd_in[5]
*309 wd_in[6]
*310 wd_in[7]
*311 wd_in[8]
*312 wd_in[9]
*313 we_in
*316 net1
*317 net2
*318 net3
*319 net4
*320 net5
*321 net6
*322 net7
*323 net8
*324 net9
*325 net10
*326 net11
*327 net12
*328 net13
*329 net14
*330 net15
*331 net16
*332 net17
*333 net18
*334 net19
*335 net20
*336 net21
*337 net22
*338 net23
*339 net24
*340 net25
*341 net26
*342 net27
*343 net28
*344 net29
*345 net30
*346 net31
*347 net32
*348 net33
*349 net34
*350 rd_out[0]
*351 rd_out[10]
*352 rd_out[11]
*353 rd_out[12]
*354 rd_out[13]
*355 rd_out[14]
*356 rd_out[15]
*357 rd_out[16]
*358 rd_out[17]
*359 rd_out[18]
*360 rd_out[19]
*361 rd_out[1]
*362 rd_out[20]
*363 rd_out[21]
*364 rd_out[22]
*365 rd_out[23]
*366 rd_out[24]
*367 rd_out[25]
*368 rd_out[26]
*369 rd_out[27]
*370 rd_out[28]
*371 rd_out[29]
*372 rd_out[2]
*373 rd_out[30]
*374 rd_out[31]
*375 rd_out[3]
*376 rd_out[4]
*377 rd_out[5]
*378 rd_out[6]
*379 rd_out[7]
*380 rd_out[8]
*381 rd_out[9]
*382 clknet_0_clk
*383 clknet_3_0_0_clk
*384 clknet_3_1_0_clk
*385 clknet_3_2_0_clk
*386 clknet_3_3_0_clk
*387 clknet_3_4_0_clk
*388 clknet_3_5_0_clk
*389 clknet_3_6_0_clk
*390 clknet_3_7_0_clk
*391 _238_
*392 _239_
*393 _240_
*394 _241_
*395 _242_
*396 _243_
*397 _244_
*398 _245_
*399 _246_
*400 _247_
*401 _248_
*402 _249_
*403 _250_
*404 _251_
*405 _252_
*406 _253_
*407 _254_
*408 _255_
*409 _256_
*410 _257_
*411 _258_
*412 _259_
*413 _260_
*414 _261_
*415 _262_
*416 _263_
*417 _264_
*418 _265_
*419 _266_
*420 _267_
*421 _268_
*422 _269_
*423 _270_
*424 _271_
*425 _272_
*426 _273_
*427 _274_
*428 _275_
*429 _276_
*430 _277_
*431 _278_
*432 _279_
*433 _280_
*434 _281_
*435 _282_
*436 _283_
*437 _284_
*438 _285_
*439 _286_
*440 _287_
*441 _288_
*442 _289_
*443 _290_
*444 _291_
*445 _292_
*446 _293_
*447 _294_
*448 _295_
*449 _296_
*450 _297_
*451 _298_
*452 _299_
*453 _300_
*454 _301_
*455 _302_
*456 _303_
*457 _304_
*458 _305_
*459 _306_
*460 _307_
*461 _308_
*462 _309_
*463 _310_
*464 _311_
*465 _312_
*466 _313_
*467 _314_
*468 _315_
*469 _316_
*470 _317_
*471 _318_
*472 _319_
*473 _320_
*474 _321_
*475 _322_
*476 _323_
*477 _324_
*478 _325_
*479 _326_
*480 _327_
*481 _328_
*482 _329_
*483 _330_
*484 _331_
*485 _332_
*486 _333_
*487 _334_
*488 _335_
*489 _336_
*490 _337_
*491 _338_
*492 _339_
*493 _340_
*494 _341_
*495 _342_
*496 _343_
*497 _344_
*498 _345_
*499 _346_
*500 _347_
*501 _348_
*502 _349_
*503 _350_
*504 _351_
*505 _352_
*506 _353_
*507 _354_
*508 _355_
*509 _356_
*510 _357_
*511 _358_
*512 _359_
*513 _360_
*514 _361_
*515 _362_
*516 _363_
*517 _364_
*518 _365_
*519 _366_
*520 _367_
*521 _368_
*522 _369_
*523 _370_
*524 _371_
*525 _372_
*526 _373_
*527 _374_
*528 _375_
*529 _376_
*530 _377_
*531 _378_
*532 _379_
*533 _380_
*534 _381_
*535 _382_
*536 _383_
*537 _384_
*538 _385_
*539 _386_
*540 _387_
*541 _388_
*542 _389_
*543 _390_
*544 _391_
*545 _392_
*546 _393_
*547 _394_
*548 _395_
*549 _396_
*550 _397_
*551 _398_
*552 _399_
*553 _400_
*554 _401_
*555 _402_
*556 _403_
*557 _404_
*558 _405_
*559 _406_
*560 _407_
*561 _408_
*562 _409_
*563 _410_
*564 _411_
*565 _412_
*566 _413_
*567 _414_
*568 _415_
*569 _416_
*570 _417_
*571 _418_
*572 _419_
*573 _420_
*574 _421_
*575 _422_
*576 _423_
*577 _424_
*578 _425_
*579 _426_
*580 _427_
*581 _428_
*582 _429_
*583 _430_
*584 _431_
*585 _432_
*586 _433_
*587 _434_
*588 _435_
*589 _436_
*590 _437_
*591 _438_
*592 _439_
*593 _440_
*594 _441_
*595 _442_
*596 _443_
*597 mem\[3\]\[0\]\$_DFFE_PP_
*598 mem\[3\]\[10\]\$_DFFE_PP_
*599 mem\[3\]\[11\]\$_DFFE_PP_
*600 mem\[3\]\[12\]\$_DFFE_PP_
*601 mem\[3\]\[13\]\$_DFFE_PP_
*602 mem\[3\]\[14\]\$_DFFE_PP_
*603 mem\[3\]\[15\]\$_DFFE_PP_
*604 mem\[3\]\[16\]\$_DFFE_PP_
*605 mem\[3\]\[17\]\$_DFFE_PP_
*606 mem\[3\]\[18\]\$_DFFE_PP_
*607 mem\[3\]\[19\]\$_DFFE_PP_
*608 mem\[3\]\[1\]\$_DFFE_PP_
*609 mem\[3\]\[20\]\$_DFFE_PP_
*610 mem\[3\]\[21\]\$_DFFE_PP_
*611 mem\[3\]\[22\]\$_DFFE_PP_
*612 mem\[3\]\[23\]\$_DFFE_PP_
*613 mem\[3\]\[24\]\$_DFFE_PP_
*614 mem\[3\]\[25\]\$_DFFE_PP_
*615 mem\[3\]\[26\]\$_DFFE_PP_
*616 mem\[3\]\[27\]\$_DFFE_PP_
*617 mem\[3\]\[28\]\$_DFFE_PP_
*618 mem\[3\]\[29\]\$_DFFE_PP_
*619 mem\[3\]\[2\]\$_DFFE_PP_
*620 mem\[3\]\[30\]\$_DFFE_PP_
*621 mem\[3\]\[31\]\$_DFFE_PP_
*622 mem\[3\]\[3\]\$_DFFE_PP_
*623 mem\[3\]\[4\]\$_DFFE_PP_
*624 mem\[3\]\[5\]\$_DFFE_PP_
*625 mem\[3\]\[6\]\$_DFFE_PP_
*626 mem\[3\]\[7\]\$_DFFE_PP_
*627 mem\[3\]\[8\]\$_DFFE_PP_
*628 mem\[3\]\[9\]\$_DFFE_PP_
*629 rd_out\[0\]\$_DFF_P_
*630 rd_out\[10\]\$_DFF_P_
*631 rd_out\[11\]\$_DFF_P_
*632 rd_out\[12\]\$_DFF_P_
*633 rd_out\[13\]\$_DFF_P_
*634 rd_out\[14\]\$_DFF_P_
*635 rd_out\[15\]\$_DFF_P_
*636 rd_out\[16\]\$_DFF_P_
*637 rd_out\[17\]\$_DFF_P_
*638 rd_out\[18\]\$_DFF_P_
*639 rd_out\[19\]\$_DFF_P_
*640 rd_out\[1\]\$_DFF_P_
*641 rd_out\[20\]\$_DFF_P_
*642 rd_out\[21\]\$_DFF_P_
*643 rd_out\[22\]\$_DFF_P_
*644 rd_out\[23\]\$_DFF_P_
*645 rd_out\[24\]\$_DFF_P_
*646 rd_out\[25\]\$_DFF_P_
*647 rd_out\[26\]\$_DFF_P_
*648 rd_out\[27\]\$_DFF_P_
*649 rd_out\[28\]\$_DFF_P_
*650 rd_out\[29\]\$_DFF_P_
*651 rd_out\[2\]\$_DFF_P_
*652 rd_out\[30\]\$_DFF_P_
*653 rd_out\[31\]\$_DFF_P_
*654 rd_out\[3\]\$_DFF_P_
*655 rd_out\[4\]\$_DFF_P_
*656 rd_out\[5\]\$_DFF_P_
*657 rd_out\[6\]\$_DFF_P_
*658 rd_out\[7\]\$_DFF_P_
*659 rd_out\[8\]\$_DFF_P_
*660 rd_out\[9\]\$_DFF_P_
*661 PHY_EDGE_ROW_0_Right_0
*662 PHY_EDGE_ROW_1_Right_1
*663 PHY_EDGE_ROW_2_Right_2
*664 PHY_EDGE_ROW_3_Right_3
*665 PHY_EDGE_ROW_4_Right_4
*666 PHY_EDGE_ROW_5_Right_5
*667 PHY_EDGE_ROW_6_Right_6
*668 PHY_EDGE_ROW_7_Right_7
*669 PHY_EDGE_ROW_8_Right_8
*670 PHY_EDGE_ROW_9_Right_9
*671 PHY_EDGE_ROW_10_Right_10
*672 PHY_EDGE_ROW_11_Right_11
*673 PHY_EDGE_ROW_12_Right_12
*674 PHY_EDGE_ROW_13_Right_13
*675 PHY_EDGE_ROW_14_Right_14
*676 PHY_EDGE_ROW_15_Right_15
*677 PHY_EDGE_ROW_16_Right_16
*678 PHY_EDGE_ROW_17_Right_17
*679 PHY_EDGE_ROW_18_Right_18
*680 PHY_EDGE_ROW_19_Right_19
*681 PHY_EDGE_ROW_20_Right_20
*682 PHY_EDGE_ROW_21_Right_21
*683 PHY_EDGE_ROW_22_Right_22
*684 PHY_EDGE_ROW_23_Right_23
*685 PHY_EDGE_ROW_24_Right_24
*686 PHY_EDGE_ROW_25_Right_25
*687 PHY_EDGE_ROW_26_Right_26
*688 PHY_EDGE_ROW_27_Right_27
*689 PHY_EDGE_ROW_28_Right_28
*690 PHY_EDGE_ROW_29_Right_29
*691 PHY_EDGE_ROW_30_Right_30
*692 PHY_EDGE_ROW_31_Right_31
*693 PHY_EDGE_ROW_32_Right_32
*694 PHY_EDGE_ROW_33_Right_33
*695 PHY_EDGE_ROW_34_Right_34
*696 PHY_EDGE_ROW_35_Right_35
*697 PHY_EDGE_ROW_36_Right_36
*698 PHY_EDGE_ROW_37_Right_37
*699 PHY_EDGE_ROW_38_Right_38
*700 PHY_EDGE_ROW_39_Right_39
*701 PHY_EDGE_ROW_40_Right_40
*702 PHY_EDGE_ROW_41_Right_41
*703 PHY_EDGE_ROW_42_Right_42
*704 PHY_EDGE_ROW_43_Right_43
*705 PHY_EDGE_ROW_44_Right_44
*706 PHY_EDGE_ROW_45_Right_45
*707 PHY_EDGE_ROW_46_Right_46
*708 PHY_EDGE_ROW_47_Right_47
*709 PHY_EDGE_ROW_48_Right_48
*710 PHY_EDGE_ROW_49_Right_49
*711 PHY_EDGE_ROW_50_Right_50
*712 PHY_EDGE_ROW_51_Right_51
*713 PHY_EDGE_ROW_52_Right_52
*714 PHY_EDGE_ROW_53_Right_53
*715 PHY_EDGE_ROW_54_Right_54
*716 PHY_EDGE_ROW_55_Right_55
*717 PHY_EDGE_ROW_56_Right_56
*718 PHY_EDGE_ROW_57_Right_57
*719 PHY_EDGE_ROW_58_Right_58
*720 PHY_EDGE_ROW_59_Right_59
*721 PHY_EDGE_ROW_60_Right_60
*722 PHY_EDGE_ROW_61_Right_61
*723 PHY_EDGE_ROW_62_Right_62
*724 PHY_EDGE_ROW_63_Right_63
*725 PHY_EDGE_ROW_64_Right_64
*726 PHY_EDGE_ROW_65_Right_65
*727 PHY_EDGE_ROW_66_Right_66
*728 PHY_EDGE_ROW_67_Right_67
*729 PHY_EDGE_ROW_68_Right_68
*730 PHY_EDGE_ROW_69_Right_69
*731 PHY_EDGE_ROW_70_Right_70
*732 PHY_EDGE_ROW_71_Right_71
*733 PHY_EDGE_ROW_72_Right_72
*734 PHY_EDGE_ROW_73_Right_73
*735 PHY_EDGE_ROW_74_Right_74
*736 PHY_EDGE_ROW_75_Right_75
*737 PHY_EDGE_ROW_76_Right_76
*738 PHY_EDGE_ROW_77_Right_77
*739 PHY_EDGE_ROW_78_Right_78
*740 PHY_EDGE_ROW_79_Right_79
*741 PHY_EDGE_ROW_80_Right_80
*742 PHY_EDGE_ROW_81_Right_81
*743 PHY_EDGE_ROW_82_Right_82
*744 PHY_EDGE_ROW_83_Right_83
*745 PHY_EDGE_ROW_84_Right_84
*746 PHY_EDGE_ROW_85_Right_85
*747 PHY_EDGE_ROW_86_Right_86
*748 PHY_EDGE_ROW_87_Right_87
*749 PHY_EDGE_ROW_88_Right_88
*750 PHY_EDGE_ROW_89_Right_89
*751 PHY_EDGE_ROW_90_Right_90
*752 PHY_EDGE_ROW_91_Right_91
*753 PHY_EDGE_ROW_92_Right_92
*754 PHY_EDGE_ROW_0_Left_93
*755 PHY_EDGE_ROW_1_Left_94
*756 PHY_EDGE_ROW_2_Left_95
*757 PHY_EDGE_ROW_3_Left_96
*758 PHY_EDGE_ROW_4_Left_97
*759 PHY_EDGE_ROW_5_Left_98
*760 PHY_EDGE_ROW_6_Left_99
*761 PHY_EDGE_ROW_7_Left_100
*762 PHY_EDGE_ROW_8_Left_101
*763 PHY_EDGE_ROW_9_Left_102
*764 PHY_EDGE_ROW_10_Left_103
*765 PHY_EDGE_ROW_11_Left_104
*766 PHY_EDGE_ROW_12_Left_105
*767 PHY_EDGE_ROW_13_Left_106
*768 PHY_EDGE_ROW_14_Left_107
*769 PHY_EDGE_ROW_15_Left_108
*770 PHY_EDGE_ROW_16_Left_109
*771 PHY_EDGE_ROW_17_Left_110
*772 PHY_EDGE_ROW_18_Left_111
*773 PHY_EDGE_ROW_19_Left_112
*774 PHY_EDGE_ROW_20_Left_113
*775 PHY_EDGE_ROW_21_Left_114
*776 PHY_EDGE_ROW_22_Left_115
*777 PHY_EDGE_ROW_23_Left_116
*778 PHY_EDGE_ROW_24_Left_117
*779 PHY_EDGE_ROW_25_Left_118
*780 PHY_EDGE_ROW_26_Left_119
*781 PHY_EDGE_ROW_27_Left_120
*782 PHY_EDGE_ROW_28_Left_121
*783 PHY_EDGE_ROW_29_Left_122
*784 PHY_EDGE_ROW_30_Left_123
*785 PHY_EDGE_ROW_31_Left_124
*786 PHY_EDGE_ROW_32_Left_125
*787 PHY_EDGE_ROW_33_Left_126
*788 PHY_EDGE_ROW_34_Left_127
*789 PHY_EDGE_ROW_35_Left_128
*790 PHY_EDGE_ROW_36_Left_129
*791 PHY_EDGE_ROW_37_Left_130
*792 PHY_EDGE_ROW_38_Left_131
*793 PHY_EDGE_ROW_39_Left_132
*794 PHY_EDGE_ROW_40_Left_133
*795 PHY_EDGE_ROW_41_Left_134
*796 PHY_EDGE_ROW_42_Left_135
*797 PHY_EDGE_ROW_43_Left_136
*798 PHY_EDGE_ROW_44_Left_137
*799 PHY_EDGE_ROW_45_Left_138
*800 PHY_EDGE_ROW_46_Left_139
*801 PHY_EDGE_ROW_47_Left_140
*802 PHY_EDGE_ROW_48_Left_141
*803 PHY_EDGE_ROW_49_Left_142
*804 PHY_EDGE_ROW_50_Left_143
*805 PHY_EDGE_ROW_51_Left_144
*806 PHY_EDGE_ROW_52_Left_145
*807 PHY_EDGE_ROW_53_Left_146
*808 PHY_EDGE_ROW_54_Left_147
*809 PHY_EDGE_ROW_55_Left_148
*810 PHY_EDGE_ROW_56_Left_149
*811 PHY_EDGE_ROW_57_Left_150
*812 PHY_EDGE_ROW_58_Left_151
*813 PHY_EDGE_ROW_59_Left_152
*814 PHY_EDGE_ROW_60_Left_153
*815 PHY_EDGE_ROW_61_Left_154
*816 PHY_EDGE_ROW_62_Left_155
*817 PHY_EDGE_ROW_63_Left_156
*818 PHY_EDGE_ROW_64_Left_157
*819 PHY_EDGE_ROW_65_Left_158
*820 PHY_EDGE_ROW_66_Left_159
*821 PHY_EDGE_ROW_67_Left_160
*822 PHY_EDGE_ROW_68_Left_161
*823 PHY_EDGE_ROW_69_Left_162
*824 PHY_EDGE_ROW_70_Left_163
*825 PHY_EDGE_ROW_71_Left_164
*826 PHY_EDGE_ROW_72_Left_165
*827 PHY_EDGE_ROW_73_Left_166
*828 PHY_EDGE_ROW_74_Left_167
*829 PHY_EDGE_ROW_75_Left_168
*830 PHY_EDGE_ROW_76_Left_169
*831 PHY_EDGE_ROW_77_Left_170
*832 PHY_EDGE_ROW_78_Left_171
*833 PHY_EDGE_ROW_79_Left_172
*834 PHY_EDGE_ROW_80_Left_173
*835 PHY_EDGE_ROW_81_Left_174
*836 PHY_EDGE_ROW_82_Left_175
*837 PHY_EDGE_ROW_83_Left_176
*838 PHY_EDGE_ROW_84_Left_177
*839 PHY_EDGE_ROW_85_Left_178
*840 PHY_EDGE_ROW_86_Left_179
*841 PHY_EDGE_ROW_87_Left_180
*842 PHY_EDGE_ROW_88_Left_181
*843 PHY_EDGE_ROW_89_Left_182
*844 PHY_EDGE_ROW_90_Left_183
*845 PHY_EDGE_ROW_91_Left_184
*846 PHY_EDGE_ROW_92_Left_185
*847 input1
*848 input2
*849 input3
*850 input4
*851 input5
*852 input6
*853 input7
*854 input8
*855 input9
*856 input10
*857 input11
*858 input12
*859 input13
*860 input14
*861 input15
*862 input16
*863 input17
*864 input18
*865 input19
*866 input20
*867 input21
*868 input22
*869 input23
*870 input24
*871 input25
*872 input26
*873 input27
*874 input28
*875 input29
*876 input30
*877 input31
*878 input32
*879 input33
*880 input34
*881 output35
*882 output36
*883 output37
*884 output38
*885 output39
*886 output40
*887 output41
*888 output42
*889 output43
*890 output44
*891 output45
*892 output46
*893 output47
*894 output48
*895 output49
*896 output50
*897 output51
*898 output52
*899 output53
*900 output54
*901 output55
*902 output56
*903 output57
*904 output58
*905 output59
*906 output60
*907 output61
*908 output62
*909 output63
*910 output64
*911 output65
*912 output66
*913 clkbuf_0_clk
*914 clkbuf_3_0_0_clk
*915 clkbuf_3_1_0_clk
*916 clkbuf_3_2_0_clk
*917 clkbuf_3_3_0_clk
*918 clkbuf_3_4_0_clk
*919 clkbuf_3_5_0_clk
*920 clkbuf_3_6_0_clk
*921 clkbuf_3_7_0_clk
*922 clkload0
*923 clkload1
*924 clkload2
*925 clkload3
*926 clkload4
*927 clkload5
*928 FILLER_0_2
*929 FILLER_0_24
*930 FILLER_0_46
*931 FILLER_1_2
*932 FILLER_1_24
*933 FILLER_1_46
*934 FILLER_2_2
*935 FILLER_2_24
*936 FILLER_2_46
*937 FILLER_3_2
*938 FILLER_3_24
*939 FILLER_3_46
*940 FILLER_4_2
*941 FILLER_4_24
*942 FILLER_4_46
*943 FILLER_5_2
*944 FILLER_5_24
*945 FILLER_5_46
*946 FILLER_6_2
*947 FILLER_6_24
*948 FILLER_6_46
*949 FILLER_7_2
*950 FILLER_7_24
*951 FILLER_7_46
*952 FILLER_8_2
*953 FILLER_8_24
*954 FILLER_8_46
*955 FILLER_9_2
*956 FILLER_9_24
*957 FILLER_9_46
*958 FILLER_10_2
*959 FILLER_10_24
*960 FILLER_10_46
*961 FILLER_11_2
*962 FILLER_11_24
*963 FILLER_11_46
*964 FILLER_12_2
*965 FILLER_12_24
*966 FILLER_12_46
*967 FILLER_12_50
*968 FILLER_13_2
*969 FILLER_13_24
*970 FILLER_14_2
*971 FILLER_14_16
*972 FILLER_14_18
*973 FILLER_14_44
*974 FILLER_14_54
*975 FILLER_15_24
*976 FILLER_15_34
*977 FILLER_15_40
*978 FILLER_16_30
*979 FILLER_17_2
*980 FILLER_17_8
*981 FILLER_17_10
*982 FILLER_17_17
*983 FILLER_17_43
*984 FILLER_17_55
*985 FILLER_18_2
*986 FILLER_18_4
*987 FILLER_18_26
*988 FILLER_18_28
*989 FILLER_19_2
*990 FILLER_19_23
*991 FILLER_19_25
*992 FILLER_20_2
*993 FILLER_20_10
*994 FILLER_20_53
*995 FILLER_20_55
*996 FILLER_21_2
*997 FILLER_21_50
*998 FILLER_22_2
*999 FILLER_22_32
*1000 FILLER_22_49
*1001 FILLER_24_2
*1002 FILLER_24_28
*1003 FILLER_25_2
*1004 FILLER_27_2
*1005 FILLER_28_2
*1006 FILLER_28_9
*1007 FILLER_30_27
*1008 FILLER_31_23
*1009 FILLER_31_55
*1010 FILLER_33_55
*1011 FILLER_34_2
*1012 FILLER_34_36
*1013 FILLER_36_2
*1014 FILLER_36_25
*1015 FILLER_36_54
*1016 FILLER_37_2
*1017 FILLER_37_31
*1018 FILLER_37_55
*1019 FILLER_38_32
*1020 FILLER_38_49
*1021 FILLER_39_2
*1022 FILLER_40_2
*1023 FILLER_40_4
*1024 FILLER_40_8
*1025 FILLER_40_20
*1026 FILLER_40_25
*1027 FILLER_40_47
*1028 FILLER_40_51
*1029 FILLER_40_55
*1030 FILLER_41_2
*1031 FILLER_41_12
*1032 FILLER_42_2
*1033 FILLER_43_33
*1034 FILLER_43_50
*1035 FILLER_44_2
*1036 FILLER_44_9
*1037 FILLER_44_19
*1038 FILLER_44_21
*1039 FILLER_44_50
*1040 FILLER_44_55
*1041 FILLER_45_2
*1042 FILLER_45_6
*1043 FILLER_45_13
*1044 FILLER_45_49
*1045 FILLER_45_55
*1046 FILLER_46_27
*1047 FILLER_46_45
*1048 FILLER_46_50
*1049 FILLER_47_53
*1050 FILLER_47_55
*1051 FILLER_49_24
*1052 FILLER_49_30
*1053 FILLER_49_32
*1054 FILLER_49_55
*1055 FILLER_50_2
*1056 FILLER_50_12
*1057 FILLER_50_26
*1058 FILLER_50_31
*1059 FILLER_50_33
*1060 FILLER_51_2
*1061 FILLER_51_6
*1062 FILLER_51_20
*1063 FILLER_51_26
*1064 FILLER_51_28
*1065 FILLER_52_2
*1066 FILLER_52_4
*1067 FILLER_52_54
*1068 FILLER_53_2
*1069 FILLER_53_4
*1070 FILLER_53_43
*1071 FILLER_53_54
*1072 FILLER_54_2
*1073 FILLER_54_31
*1074 FILLER_54_35
*1075 FILLER_54_48
*1076 FILLER_54_50
*1077 FILLER_55_2
*1078 FILLER_56_2
*1079 FILLER_56_4
*1080 FILLER_56_51
*1081 FILLER_56_55
*1082 FILLER_57_24
*1083 FILLER_57_31
*1084 FILLER_57_55
*1085 FILLER_58_40
*1086 FILLER_59_35
*1087 FILLER_59_47
*1088 FILLER_60_2
*1089 FILLER_60_26
*1090 FILLER_60_55
*1091 FILLER_61_2
*1092 FILLER_61_53
*1093 FILLER_61_55
*1094 FILLER_63_2
*1095 FILLER_63_19
*1096 FILLER_63_40
*1097 FILLER_63_55
*1098 FILLER_64_2
*1099 FILLER_64_4
*1100 FILLER_65_2
*1101 FILLER_65_4
*1102 FILLER_65_26
*1103 FILLER_66_33
*1104 FILLER_67_11
*1105 FILLER_67_31
*1106 FILLER_67_55
*1107 FILLER_68_2
*1108 FILLER_68_44
*1109 FILLER_69_2
*1110 FILLER_69_39
*1111 FILLER_69_55
*1112 FILLER_70_2
*1113 FILLER_71_2
*1114 FILLER_72_2
*1115 FILLER_73_23
*1116 FILLER_73_55
*1117 FILLER_74_2
*1118 FILLER_74_19
*1119 FILLER_75_55
*1120 FILLER_76_2
*1121 FILLER_76_25
*1122 FILLER_77_2
*1123 FILLER_78_2
*1124 FILLER_78_9
*1125 FILLER_78_55
*1126 FILLER_79_2
*1127 FILLER_79_6
*1128 FILLER_80_2
*1129 FILLER_80_42
*1130 FILLER_81_2
*1131 FILLER_81_24
*1132 FILLER_81_34
*1133 FILLER_82_2
*1134 FILLER_82_24
*1135 FILLER_82_49
*1136 FILLER_82_55
*1137 FILLER_83_2
*1138 FILLER_83_24
*1139 FILLER_83_46
*1140 FILLER_84_2
*1141 FILLER_84_24
*1142 FILLER_84_46
*1143 FILLER_85_2
*1144 FILLER_85_24
*1145 FILLER_85_46
*1146 FILLER_86_2
*1147 FILLER_86_24
*1148 FILLER_86_46
*1149 FILLER_87_2
*1150 FILLER_87_24
*1151 FILLER_87_46
*1152 FILLER_88_2
*1153 FILLER_88_24
*1154 FILLER_88_46
*1155 FILLER_89_2
*1156 FILLER_89_24
*1157 FILLER_89_46
*1158 FILLER_90_2
*1159 FILLER_90_24
*1160 FILLER_90_46
*1161 FILLER_91_2
*1162 FILLER_91_24
*1163 FILLER_91_46
*1164 FILLER_92_2
*1165 FILLER_92_24
*1166 FILLER_92_46

*PORTS
addr_in[0] I
addr_in[1] I
addr_in[2] I
addr_in[3] I
addr_in[4] I
addr_in[5] I
addr_in[6] I
addr_in[7] I
ce_in I
clk I
rd_out[0] O
rd_out[10] O
rd_out[11] O
rd_out[12] O
rd_out[13] O
rd_out[14] O
rd_out[15] O
rd_out[16] O
rd_out[17] O
rd_out[18] O
rd_out[19] O
rd_out[1] O
rd_out[20] O
rd_out[21] O
rd_out[22] O
rd_out[23] O
rd_out[24] O
rd_out[25] O
rd_out[26] O
rd_out[27] O
rd_out[28] O
rd_out[29] O
rd_out[2] O
rd_out[30] O
rd_out[31] O
rd_out[3] O
rd_out[4] O
rd_out[5] O
rd_out[6] O
rd_out[7] O
rd_out[8] O
rd_out[9] O
wd_in[0] I
wd_in[10] I
wd_in[11] I
wd_in[12] I
wd_in[13] I
wd_in[14] I
wd_in[15] I
wd_in[16] I
wd_in[17] I
wd_in[18] I
wd_in[19] I
wd_in[1] I
wd_in[20] I
wd_in[21] I
wd_in[22] I
wd_in[23] I
wd_in[24] I
wd_in[25] I
wd_in[26] I
wd_in[27] I
wd_in[28] I
wd_in[29] I
wd_in[2] I
wd_in[30] I
wd_in[31] I
wd_in[3] I
wd_in[4] I
wd_in[5] I
wd_in[6] I
wd_in[7] I
wd_in[8] I
wd_in[9] I
we_in I

*D_NET *1 0.000191532
*CONN
*I *629:D I *D DFFHQNx3_ASAP7_75t_R
*I *394:Y O *D AND2x2_ASAP7_75t_R
*CAP
1 *629:D 2.47791e-05
2 *394:Y 0
3 *1:8 6.18536e-05
4 *1:6 3.70744e-05
5 *629:D *129:14 0
6 *629:D *129:22 0
7 *629:D *168:18 5.85387e-06
8 *1:8 *917:A 3.58449e-05
9 *1:8 *129:31 4.33281e-06
10 *1:8 *170:12 2.53845e-06
11 *1:8 *318:10 1.54556e-05
12 *1:8 *386:10 3.79923e-06
*RES
1 *394:Y *1:6 34.4 
2 *1:6 *1:8 34.3531 
3 *1:8 *629:D 44.5617 
*END

*D_NET *2 7.62131e-05
*CONN
*I *630:D I *D DFFHQNx3_ASAP7_75t_R
*I *415:Y O *D AND2x2_ASAP7_75t_R
*CAP
1 *630:D 6.97779e-06
2 *415:Y 1.14383e-05
3 *2:8 1.84161e-05
4 *630:D *385:35 1.59615e-06
5 *2:8 *141:12 2.66045e-05
6 *2:8 *171:12 5.22486e-06
7 *2:8 *254:18 5.37569e-06
8 *2:8 *385:35 5.79724e-07
*RES
1 *415:Y *2:8 46.2265 
2 *2:8 *630:D 37.0741 
*END

*D_NET *3 2.17055e-05
*CONN
*I *631:D I *D DFFHQNx3_ASAP7_75t_R
*I *417:Y O *D AND2x2_ASAP7_75t_R
*CAP
1 *631:D 4.24919e-06
2 *417:Y 4.05985e-06
3 *3:8 8.30904e-06
4 *3:8 *62:29 3.95845e-06
5 *3:8 *383:16 1.12894e-06
*RES
1 *417:Y *3:8 37.779 
2 *3:8 *631:D 36.0045 
*END

*D_NET *4 7.74015e-05
*CONN
*I *632:D I *D DFFHQNx3_ASAP7_75t_R
*I *419:Y O *D AND2x2_ASAP7_75t_R
*CAP
1 *632:D 0
2 *419:Y 2.47269e-05
3 *4:10 2.47269e-05
4 *4:10 *419:A 1.81898e-06
5 *4:10 *61:26 5.73552e-06
6 *4:10 *144:8 1.6284e-05
7 *4:10 *164:47 0
8 *4:10 *175:14 4.10928e-06
*RES
1 *419:Y *4:10 46.871 
2 *4:10 *632:D 34.4 
*END

*D_NET *5 0.00018337
*CONN
*I *633:D I *D DFFHQNx3_ASAP7_75t_R
*I *421:Y O *D AND2x2_ASAP7_75t_R
*CAP
1 *633:D 0
2 *421:Y 1.69669e-05
3 *5:20 8.43155e-06
4 *5:14 2.72636e-05
5 *5:10 3.57989e-05
6 *5:10 *421:A 0
7 *5:10 *60:18 4.46395e-06
8 *5:10 *144:25 1.25592e-05
9 *5:10 *164:47 1.41193e-06
10 *5:14 *420:A 5.85387e-06
11 *5:14 *60:18 5.40569e-05
12 *5:14 *100:10 2.66797e-07
13 *5:14 *164:126 5.85387e-06
14 *5:14 *175:14 3.20247e-06
15 *5:14 *176:12 6.92634e-06
16 *5:20 *60:12 0
17 *5:20 *280:24 3.13755e-07
*RES
1 *421:Y *5:10 44.9585 
2 *5:10 *5:14 33.7796 
3 *5:14 *5:20 38.9053 
4 *5:20 *633:D 17.2 
*END

*D_NET *6 3.70883e-05
*CONN
*I *634:D I *D DFFHQNx3_ASAP7_75t_R
*I *423:Y O *D AND2x2_ASAP7_75t_R
*CAP
1 *634:D 1.22617e-05
2 *423:Y 4.22776e-06
3 *6:8 1.64895e-05
4 *6:8 *325:18 4.10928e-06
*RES
1 *423:Y *6:8 37.779 
2 *6:8 *634:D 39.2134 
*END

*D_NET *7 6.98759e-05
*CONN
*I *635:D I *D DFFHQNx3_ASAP7_75t_R
*I *425:Y O *D AND2x2_ASAP7_75t_R
*CAP
1 *635:D 0
2 *425:Y 0
3 *7:12 3.37416e-05
4 *7:6 3.37416e-05
5 *7:12 *71:10 0
6 *7:12 *251:10 1.12894e-06
7 *7:12 *251:18 0
8 *7:12 *254:10 0
9 *7:12 *325:14 1.26378e-06
*RES
1 *425:Y *7:6 34.4 
2 *7:6 *7:12 40.1481 
3 *7:12 *635:D 17.2 
*END

*D_NET *8 2.29403e-05
*CONN
*I *636:D I *D DFFHQNx3_ASAP7_75t_R
*I *427:Y O *D AND2x2_ASAP7_75t_R
*CAP
1 *636:D 3.1627e-06
2 *427:Y 5.71005e-06
3 *8:8 8.87275e-06
4 *636:D *636:CLK 5.19475e-06
5 *8:8 *383:52 0
*RES
1 *427:Y *8:8 37.779 
2 *8:8 *636:D 36.0045 
*END

*D_NET *9 0.000113697
*CONN
*I *637:D I *D DFFHQNx3_ASAP7_75t_R
*I *429:Y O *D AND2x2_ASAP7_75t_R
*CAP
1 *637:D 0
2 *429:Y 0
3 *9:10 1.1421e-05
4 *9:6 1.1421e-05
5 *9:10 *65:29 1.50942e-05
6 *9:10 *105:12 2.66779e-05
7 *9:10 *149:10 4.57262e-05
8 *9:10 *384:69 3.3563e-06
*RES
1 *429:Y *9:6 34.4 
2 *9:6 *9:10 37.474 
3 *9:10 *637:D 17.2 
*END

*D_NET *10 6.50074e-05
*CONN
*I *638:D I *D DFFHQNx3_ASAP7_75t_R
*I *431:Y O *D AND2x2_ASAP7_75t_R
*CAP
1 *638:D 1.97973e-05
2 *431:Y 1.97973e-05
3 *638:D *431:A 2.54129e-05
4 *638:D *75:6 0
*RES
1 *431:Y *638:D 43.492 
*END

*D_NET *11 6.4506e-05
*CONN
*I *639:D I *D DFFHQNx3_ASAP7_75t_R
*I *433:Y O *D AND2x2_ASAP7_75t_R
*CAP
1 *639:D 2.27981e-05
2 *433:Y 2.27981e-05
3 *639:D *74:18 1.45985e-05
4 *639:D *74:24 4.31135e-06
*RES
1 *433:Y *639:D 44.5617 
*END

*D_NET *12 4.09946e-05
*CONN
*I *640:D I *D DFFHQNx3_ASAP7_75t_R
*I *396:Y O *D AND2x2_ASAP7_75t_R
*CAP
1 *640:D 1.20814e-05
2 *396:Y 3.51197e-06
3 *12:8 1.55933e-05
4 *12:8 *164:156 9.8079e-06
5 *12:8 *186:58 0
*RES
1 *396:Y *12:8 37.779 
2 *12:8 *640:D 39.2134 
*END

*D_NET *13 6.55117e-05
*CONN
*I *641:D I *D DFFHQNx3_ASAP7_75t_R
*I *436:Y O *D AND2x2_ASAP7_75t_R
*CAP
1 *641:D 0
2 *436:Y 1.94104e-05
3 *13:10 1.94104e-05
4 *13:10 *436:A 6.7842e-07
5 *13:10 *536:A1 2.71368e-06
6 *13:10 *185:105 5.00394e-06
7 *13:10 *192:37 1.63973e-05
8 *13:10 *387:33 1.89747e-06
*RES
1 *436:Y *13:10 48.9006 
2 *13:10 *641:D 34.4 
*END

*D_NET *14 2.87983e-05
*CONN
*I *642:D I *D DFFHQNx3_ASAP7_75t_R
*I *438:Y O *D AND2x2_ASAP7_75t_R
*CAP
1 *642:D 5.83582e-06
2 *438:Y 2.47671e-06
3 *14:8 8.31254e-06
4 *642:D *51:14 0
5 *14:8 *154:14 2.22736e-06
6 *14:8 *192:23 9.94583e-06
*RES
1 *438:Y *14:8 37.779 
2 *14:8 *642:D 37.0741 
*END

*D_NET *15 5.32629e-05
*CONN
*I *643:D I *D DFFHQNx3_ASAP7_75t_R
*I *440:Y O *D AND2x2_ASAP7_75t_R
*CAP
1 *643:D 7.34073e-06
2 *440:Y 3.60897e-06
3 *15:8 1.09497e-05
4 *643:D *332:14 1.29755e-05
5 *15:8 *155:25 1.31716e-05
6 *15:8 *185:77 5.21648e-06
*RES
1 *440:Y *15:8 38.9053 
2 *15:8 *643:D 38.1438 
*END

*D_NET *16 1.09023e-05
*CONN
*I *644:D I *D DFFHQNx3_ASAP7_75t_R
*I *442:Y O *D AND2x2_ASAP7_75t_R
*CAP
1 *644:D 0
2 *442:Y 4.8867e-06
3 *16:8 4.8867e-06
4 *16:8 *185:77 1.12894e-06
5 *16:8 *382:74 0
*RES
1 *442:Y *16:8 37.779 
2 *16:8 *644:D 34.4 
*END

*D_NET *17 2.49623e-05
*CONN
*I *645:D I *D DFFHQNx3_ASAP7_75t_R
*I *444:Y O *D AND2x2_ASAP7_75t_R
*CAP
1 *645:D 0
2 *444:Y 1.13907e-05
3 *17:10 1.13907e-05
4 *17:10 *444:A 1.26378e-06
5 *17:10 *153:12 6.33206e-07
6 *17:10 *185:105 2.83874e-07
*RES
1 *444:Y *17:10 40.4531 
2 *17:10 *645:D 34.4 
*END

*D_NET *18 2.34562e-05
*CONN
*I *646:D I *D DFFHQNx3_ASAP7_75t_R
*I *446:Y O *D AND2x2_ASAP7_75t_R
*CAP
1 *646:D 0
2 *446:Y 1.78228e-06
3 *18:8 1.78228e-06
4 *18:8 *158:25 9.94583e-06
5 *18:8 *261:26 9.94583e-06
*RES
1 *446:Y *18:8 37.779 
2 *18:8 *646:D 34.4 
*END

*D_NET *19 9.88712e-05
*CONN
*I *647:D I *D DFFHQNx3_ASAP7_75t_R
*I *448:Y O *D AND2x2_ASAP7_75t_R
*CAP
1 *647:D 1.78285e-05
2 *448:Y 1.14545e-05
3 *19:8 2.92831e-05
4 *647:D *215:125 7.11252e-08
5 *647:D *218:10 3.17441e-06
6 *647:D *342:24 8.36023e-06
7 *647:D *390:10 3.7053e-06
8 *647:D *390:12 2.68933e-07
9 *19:8 *565:B 5.85387e-06
10 *19:8 *43:24 3.82336e-06
11 *19:8 *215:138 7.57325e-06
12 *19:8 *218:10 2.12481e-06
13 *19:8 *218:24 3.90819e-06
14 *19:8 *390:6 1.44167e-06
*RES
1 *448:Y *19:8 43.492 
2 *19:8 *647:D 49.6055 
*END

*D_NET *20 1.3512e-05
*CONN
*I *648:D I *D DFFHQNx3_ASAP7_75t_R
*I *450:Y O *D AND2x2_ASAP7_75t_R
*CAP
1 *648:D 0
2 *450:Y 4.00131e-06
3 *20:8 4.00131e-06
4 *20:8 *153:71 1.09842e-06
5 *20:8 *213:10 4.41094e-06
*RES
1 *450:Y *20:8 37.779 
2 *20:8 *648:D 34.4 
*END

*D_NET *21 2.34562e-05
*CONN
*I *649:D I *D DFFHQNx3_ASAP7_75t_R
*I *452:Y O *D AND2x2_ASAP7_75t_R
*CAP
1 *649:D 0
2 *452:Y 1.78228e-06
3 *21:8 1.78228e-06
4 *21:8 *208:101 9.94583e-06
5 *21:8 *388:41 9.94583e-06
*RES
1 *452:Y *21:8 37.779 
2 *21:8 *649:D 34.4 
*END

*D_NET *22 6.70648e-05
*CONN
*I *650:D I *D DFFHQNx3_ASAP7_75t_R
*I *454:Y O *D AND2x2_ASAP7_75t_R
*CAP
1 *650:D 1.53909e-05
2 *454:Y 1.71138e-05
3 *22:8 3.25047e-05
4 *650:D *86:16 1.78854e-06
5 *650:D *388:97 2.66797e-07
6 *22:8 *208:59 0
7 *22:8 *218:30 0
*RES
1 *454:Y *22:8 46.2265 
2 *22:8 *650:D 40.2831 
*END

*D_NET *23 0.000110724
*CONN
*I *651:D I *D DFFHQNx3_ASAP7_75t_R
*I *398:Y O *D AND2x2_ASAP7_75t_R
*CAP
1 *651:D 0
2 *398:Y 4.1169e-05
3 *23:14 1.22933e-05
4 *23:6 5.34623e-05
5 *23:6 *654:D 0
6 *23:14 *226:14 3.79923e-06
*RES
1 *398:Y *23:6 33.7796 
2 *23:6 *23:14 40.4531 
3 *23:14 *651:D 17.2 
*END

*D_NET *24 7.64208e-05
*CONN
*I *652:D I *D DFFHQNx3_ASAP7_75t_R
*I *457:Y O *D AND2x2_ASAP7_75t_R
*CAP
1 *652:D 1.51301e-05
2 *457:Y 1.13042e-05
3 *24:8 2.64343e-05
4 *652:D *299:13 2.54159e-06
5 *24:8 *163:25 1.49423e-05
6 *24:8 *382:74 6.06834e-06
*RES
1 *457:Y *24:8 46.2265 
2 *24:8 *652:D 41.3527 
*END

*D_NET *25 1.23778e-05
*CONN
*I *653:D I *D DFFHQNx3_ASAP7_75t_R
*I *459:Y O *D AND2x2_ASAP7_75t_R
*CAP
1 *653:D 0
2 *459:Y 4.14973e-06
3 *25:8 4.14973e-06
4 *25:8 *163:25 0
5 *25:8 *389:20 4.07834e-06
*RES
1 *459:Y *25:8 37.779 
2 *25:8 *653:D 34.4 
*END

*D_NET *26 4.27924e-05
*CONN
*I *654:D I *D DFFHQNx3_ASAP7_75t_R
*I *400:Y O *D AND2x2_ASAP7_75t_R
*CAP
1 *654:D 1.65011e-05
2 *400:Y 4.89504e-06
3 *26:8 2.13962e-05
4 *26:8 *208:153 0
5 *26:8 *343:12 0
6 *23:6 *654:D 0
*RES
1 *400:Y *26:8 37.779 
2 *26:8 *654:D 40.2831 
*END

*D_NET *27 6.66073e-05
*CONN
*I *655:D I *D DFFHQNx3_ASAP7_75t_R
*I *402:Y O *D AND2x2_ASAP7_75t_R
*CAP
1 *655:D 0
2 *402:Y 1.05748e-05
3 *27:8 1.05748e-05
4 *27:8 *38:10 1.0743e-05
5 *27:8 *135:14 2.98814e-07
6 *27:8 *268:16 3.4416e-05
*RES
1 *402:Y *27:8 46.2265 
2 *27:8 *655:D 34.4 
*END

*D_NET *28 4.47504e-05
*CONN
*I *656:D I *D DFFHQNx3_ASAP7_75t_R
*I *404:Y O *D AND2x2_ASAP7_75t_R
*CAP
1 *656:D 2.03814e-05
2 *404:Y 2.03814e-05
3 *656:D *656:CLK 1.37571e-06
4 *656:D *338:16 2.61188e-06
*RES
1 *404:Y *656:D 43.492 
*END

*D_NET *29 4.39873e-05
*CONN
*I *657:D I *D DFFHQNx3_ASAP7_75t_R
*I *406:Y O *D AND2x2_ASAP7_75t_R
*CAP
1 *657:D 2.19936e-05
2 *406:Y 2.19936e-05
3 *657:D *657:CLK 0
*RES
1 *406:Y *657:D 44.5617 
*END
