*SPEF "ieee 1481-1999"
*DESIGN "ibex_wb_stage"
*DATE "22:30:06 Monday March 24, 2025"
*VENDOR "The OpenROAD Project"
*PROGRAM "OpenROAD"
*VERSION "v2.0-19351-g6c51970ad"
*DESIGN_FLOW "NAME_SCOPE LOCAL" "PIN_CAP NONE"
*DIVIDER /
*DELIMITER :
*BUS_DELIMITER []
*T_UNIT 1 NS
*C_UNIT 1 PF
*R_UNIT 1 OHM
*L_UNIT 1 HENRY

*NAME_MAP
*1 _000_
*2 _001_
*3 _002_
*4 _003_
*5 _004_
*6 _005_
*8 net179
*9 clk_i
*10 en_wb_i
*11 instr_done_wb_o
*12 instr_is_compressed_id_i
*13 instr_perf_count_id_i
*14 instr_type_wb_i[0]
*15 instr_type_wb_i[1]
*16 lsu_resp_err_i
*17 lsu_resp_valid_i
*18 outstanding_load_wb_o
*19 outstanding_store_wb_o
*20 pc_id_i[0]
*21 pc_id_i[10]
*22 pc_id_i[11]
*23 pc_id_i[12]
*24 pc_id_i[13]
*25 pc_id_i[14]
*26 pc_id_i[15]
*27 pc_id_i[16]
*28 pc_id_i[17]
*29 pc_id_i[18]
*30 pc_id_i[19]
*31 pc_id_i[1]
*32 pc_id_i[20]
*33 pc_id_i[21]
*34 pc_id_i[22]
*35 pc_id_i[23]
*36 pc_id_i[24]
*37 pc_id_i[25]
*38 pc_id_i[26]
*39 pc_id_i[27]
*40 pc_id_i[28]
*41 pc_id_i[29]
*42 pc_id_i[2]
*43 pc_id_i[30]
*44 pc_id_i[31]
*45 pc_id_i[3]
*46 pc_id_i[4]
*47 pc_id_i[5]
*48 pc_id_i[6]
*49 pc_id_i[7]
*50 pc_id_i[8]
*51 pc_id_i[9]
*52 pc_wb_o[0]
*53 pc_wb_o[10]
*54 pc_wb_o[11]
*55 pc_wb_o[12]
*56 pc_wb_o[13]
*57 pc_wb_o[14]
*58 pc_wb_o[15]
*59 pc_wb_o[16]
*60 pc_wb_o[17]
*61 pc_wb_o[18]
*62 pc_wb_o[19]
*63 pc_wb_o[1]
*64 pc_wb_o[20]
*65 pc_wb_o[21]
*66 pc_wb_o[22]
*67 pc_wb_o[23]
*68 pc_wb_o[24]
*69 pc_wb_o[25]
*70 pc_wb_o[26]
*71 pc_wb_o[27]
*72 pc_wb_o[28]
*73 pc_wb_o[29]
*74 pc_wb_o[2]
*75 pc_wb_o[30]
*76 pc_wb_o[31]
*77 pc_wb_o[3]
*78 pc_wb_o[4]
*79 pc_wb_o[5]
*80 pc_wb_o[6]
*81 pc_wb_o[7]
*82 pc_wb_o[8]
*83 pc_wb_o[9]
*84 net71
*85 net72
*86 ready_wb_o
*87 rf_waddr_id_i[0]
*88 rf_waddr_id_i[1]
*89 rf_waddr_id_i[2]
*90 rf_waddr_id_i[3]
*91 rf_waddr_id_i[4]
*92 net73
*93 net74
*94 net75
*95 net76
*96 net77
*97 rf_wdata_fwd_wb_o[0]
*98 rf_wdata_fwd_wb_o[10]
*99 rf_wdata_fwd_wb_o[11]
*100 rf_wdata_fwd_wb_o[12]
*101 rf_wdata_fwd_wb_o[13]
*102 rf_wdata_fwd_wb_o[14]
*103 rf_wdata_fwd_wb_o[15]
*104 rf_wdata_fwd_wb_o[16]
*105 rf_wdata_fwd_wb_o[17]
*106 rf_wdata_fwd_wb_o[18]
*107 rf_wdata_fwd_wb_o[19]
*108 rf_wdata_fwd_wb_o[1]
*109 rf_wdata_fwd_wb_o[20]
*110 rf_wdata_fwd_wb_o[21]
*111 rf_wdata_fwd_wb_o[22]
*112 rf_wdata_fwd_wb_o[23]
*113 rf_wdata_fwd_wb_o[24]
*114 rf_wdata_fwd_wb_o[25]
*115 rf_wdata_fwd_wb_o[26]
*116 rf_wdata_fwd_wb_o[27]
*117 rf_wdata_fwd_wb_o[28]
*118 rf_wdata_fwd_wb_o[29]
*119 rf_wdata_fwd_wb_o[2]
*120 rf_wdata_fwd_wb_o[30]
*121 rf_wdata_fwd_wb_o[31]
*122 rf_wdata_fwd_wb_o[3]
*123 rf_wdata_fwd_wb_o[4]
*124 rf_wdata_fwd_wb_o[5]
*125 rf_wdata_fwd_wb_o[6]
*126 rf_wdata_fwd_wb_o[7]
*127 rf_wdata_fwd_wb_o[8]
*128 rf_wdata_fwd_wb_o[9]
*129 rf_wdata_id_i[0]
*130 rf_wdata_id_i[10]
*131 rf_wdata_id_i[11]
*132 rf_wdata_id_i[12]
*133 rf_wdata_id_i[13]
*134 rf_wdata_id_i[14]
*135 rf_wdata_id_i[15]
*136 rf_wdata_id_i[16]
*137 rf_wdata_id_i[17]
*138 rf_wdata_id_i[18]
*139 rf_wdata_id_i[19]
*140 rf_wdata_id_i[1]
*141 rf_wdata_id_i[20]
*142 rf_wdata_id_i[21]
*143 rf_wdata_id_i[22]
*144 rf_wdata_id_i[23]
*145 rf_wdata_id_i[24]
*146 rf_wdata_id_i[25]
*147 rf_wdata_id_i[26]
*148 rf_wdata_id_i[27]
*149 rf_wdata_id_i[28]
*150 rf_wdata_id_i[29]
*151 rf_wdata_id_i[2]
*152 rf_wdata_id_i[30]
*153 rf_wdata_id_i[31]
*154 rf_wdata_id_i[3]
*155 rf_wdata_id_i[4]
*156 rf_wdata_id_i[5]
*157 rf_wdata_id_i[6]
*158 rf_wdata_id_i[7]
*159 rf_wdata_id_i[8]
*160 rf_wdata_id_i[9]
*161 rf_wdata_lsu_i[0]
*162 rf_wdata_lsu_i[10]
*163 rf_wdata_lsu_i[11]
*164 rf_wdata_lsu_i[12]
*165 rf_wdata_lsu_i[13]
*166 rf_wdata_lsu_i[14]
*167 rf_wdata_lsu_i[15]
*168 rf_wdata_lsu_i[16]
*169 rf_wdata_lsu_i[17]
*170 rf_wdata_lsu_i[18]
*171 rf_wdata_lsu_i[19]
*172 rf_wdata_lsu_i[1]
*173 rf_wdata_lsu_i[20]
*174 rf_wdata_lsu_i[21]
*175 rf_wdata_lsu_i[22]
*176 rf_wdata_lsu_i[23]
*177 rf_wdata_lsu_i[24]
*178 rf_wdata_lsu_i[25]
*179 rf_wdata_lsu_i[26]
*180 rf_wdata_lsu_i[27]
*181 rf_wdata_lsu_i[28]
*182 rf_wdata_lsu_i[29]
*183 rf_wdata_lsu_i[2]
*184 rf_wdata_lsu_i[30]
*185 rf_wdata_lsu_i[31]
*186 rf_wdata_lsu_i[3]
*187 rf_wdata_lsu_i[4]
*188 rf_wdata_lsu_i[5]
*189 rf_wdata_lsu_i[6]
*190 rf_wdata_lsu_i[7]
*191 rf_wdata_lsu_i[8]
*192 rf_wdata_lsu_i[9]
*193 net78
*194 net79
*195 net80
*196 net81
*197 net82
*198 net83
*199 net84
*200 net85
*201 net86
*202 net87
*203 net88
*204 net89
*205 net90
*206 net91
*207 net92
*208 net93
*209 net94
*210 net95
*211 net96
*212 net97
*213 net98
*214 net99
*215 net100
*216 net101
*217 net102
*218 net103
*219 net104
*220 net105
*221 net106
*222 net107
*223 net108
*224 net109
*225 rf_we_id_i
*226 rf_we_lsu_i
*227 net110
*228 rf_write_wb_o
*229 rst_ni
*232 net1
*233 net2
*234 net3
*235 net4
*236 net5
*237 net6
*238 net7
*239 net8
*240 net9
*241 net10
*242 net11
*243 net12
*244 net13
*245 net14
*246 net15
*247 net16
*248 net17
*249 net18
*250 net19
*251 net20
*252 net21
*253 net22
*254 net23
*255 net24
*256 net25
*257 net26
*258 net27
*259 net28
*260 net29
*261 net30
*262 net31
*263 net32
*264 net33
*265 net34
*266 net35
*267 net36
*268 net37
*269 net38
*270 net39
*271 net40
*272 net41
*273 net42
*274 net43
*275 net44
*276 net45
*277 net46
*278 net47
*279 net48
*280 net49
*281 net50
*282 net51
*283 net52
*284 net53
*285 net54
*286 net55
*287 net56
*288 net57
*289 net58
*290 net59
*291 net60
*292 net61
*293 net62
*294 net63
*295 net64
*296 net65
*297 net66
*298 net67
*299 net68
*300 net69
*301 net70
*302 perf_instr_ret_compressed_wb_o
*303 perf_instr_ret_wb_o
*304 rf_waddr_wb_o[0]
*305 rf_waddr_wb_o[1]
*306 rf_waddr_wb_o[2]
*307 rf_waddr_wb_o[3]
*308 rf_waddr_wb_o[4]
*309 rf_wdata_wb_o[0]
*310 rf_wdata_wb_o[10]
*311 rf_wdata_wb_o[11]
*312 rf_wdata_wb_o[12]
*313 rf_wdata_wb_o[13]
*314 rf_wdata_wb_o[14]
*315 rf_wdata_wb_o[15]
*316 rf_wdata_wb_o[16]
*317 rf_wdata_wb_o[17]
*318 rf_wdata_wb_o[18]
*319 rf_wdata_wb_o[19]
*320 rf_wdata_wb_o[1]
*321 rf_wdata_wb_o[20]
*322 rf_wdata_wb_o[21]
*323 rf_wdata_wb_o[22]
*324 rf_wdata_wb_o[23]
*325 rf_wdata_wb_o[24]
*326 rf_wdata_wb_o[25]
*327 rf_wdata_wb_o[26]
*328 rf_wdata_wb_o[27]
*329 rf_wdata_wb_o[28]
*330 rf_wdata_wb_o[29]
*331 rf_wdata_wb_o[2]
*332 rf_wdata_wb_o[30]
*333 rf_wdata_wb_o[31]
*334 rf_wdata_wb_o[3]
*335 rf_wdata_wb_o[4]
*336 rf_wdata_wb_o[5]
*337 rf_wdata_wb_o[6]
*338 rf_wdata_wb_o[7]
*339 rf_wdata_wb_o[8]
*340 rf_wdata_wb_o[9]
*341 rf_we_wb_o
*342 net111
*343 net112
*344 net113
*345 net114
*346 net115
*347 net116
*348 net117
*349 net118
*350 net119
*351 net120
*352 net121
*353 net122
*354 net123
*355 net124
*356 net125
*357 net126
*358 net127
*359 net128
*360 net129
*361 net130
*362 net131
*363 net132
*364 net133
*365 net134
*366 net135
*367 net136
*368 net137
*369 net138
*370 net139
*371 net140
*372 net141
*373 net142
*374 net143
*375 net144
*376 net145
*377 net146
*378 net147
*379 net148
*380 net149
*381 net150
*382 net151
*383 net152
*384 net153
*385 net154
*386 net155
*387 net156
*388 net157
*389 net158
*390 net159
*391 net160
*392 net161
*393 net162
*394 net163
*395 net164
*396 net165
*397 net166
*398 net167
*399 net168
*400 net169
*401 net170
*402 net171
*403 net172
*404 net173
*405 net174
*406 net175
*407 net176
*408 net177
*409 net178
*410 _008_
*411 _009_
*412 _010_
*413 _011_
*414 _012_
*415 _013_
*416 _014_
*417 _015_
*418 _016_
*419 _017_
*420 _018_
*421 _019_
*422 _020_
*423 _021_
*424 _022_
*425 _023_
*426 _024_
*427 _025_
*428 _026_
*429 _027_
*430 _028_
*431 _029_
*432 _030_
*433 _031_
*434 _032_
*435 _033_
*436 _034_
*437 _035_
*438 _036_
*439 _037_
*440 _038_
*441 _039_
*442 _040_
*443 _041_
*444 _042_
*445 _043_
*446 _044_
*447 _045_
*448 _046_
*449 _047_
*450 _048_
*451 FILLER_0_0
*452 _086__179
*453 _051_
*454 _052_
*455 _053_
*456 _054_
*457 _055_
*458 _056_
*459 _057_
*460 _058_
*461 _059_
*462 _060_
*463 _061_
*464 _062_
*465 _063_
*466 _064_
*467 _065_
*468 _066_
*469 _067_
*470 _068_
*471 _069_
*472 _070_
*473 _071_
*474 _072_
*475 _073_
*476 _074_
*477 _075_
*478 _076_
*479 _077_
*480 _078_
*481 _079_
*482 _080_
*483 _081_
*484 _082_
*485 _083_
*486 _084_
*487 _085_
*488 _086_
*489 _087_
*490 _088_
*491 _089_
*492 _090_
*493 _091_
*494 _092_
*495 _093_
*496 _094_
*497 _095_
*498 _096_
*499 _097_
*500 _098_
*501 _099_
*502 _100_
*503 _101_
*504 _102_
*505 _103_
*506 _104_
*507 _105_
*508 _106_
*509 _107_
*510 _108_
*511 _109_
*512 _110_
*513 _111_
*514 _112_
*515 _113_
*516 _114_
*517 _115_
*518 _116_
*519 _117_
*520 _118_
*521 _119_
*522 _120_
*523 _121_
*524 _122_
*525 _123_
*526 _124_
*527 TAP_TAPCELL_ROW_0_0
*528 TAP_TAPCELL_ROW_0_1
*529 TAP_TAPCELL_ROW_0_2
*530 TAP_TAPCELL_ROW_1_3
*531 TAP_TAPCELL_ROW_2_4
*532 TAP_TAPCELL_ROW_2_5
*533 TAP_TAPCELL_ROW_3_6
*534 TAP_TAPCELL_ROW_4_7
*535 TAP_TAPCELL_ROW_4_8
*536 TAP_TAPCELL_ROW_5_9
*537 TAP_TAPCELL_ROW_6_10
*538 TAP_TAPCELL_ROW_6_11
*539 TAP_TAPCELL_ROW_7_12
*540 TAP_TAPCELL_ROW_8_13
*541 TAP_TAPCELL_ROW_8_14
*542 TAP_TAPCELL_ROW_9_15
*543 TAP_TAPCELL_ROW_10_16
*544 TAP_TAPCELL_ROW_10_17
*545 TAP_TAPCELL_ROW_11_18
*546 TAP_TAPCELL_ROW_12_19
*547 TAP_TAPCELL_ROW_12_20
*548 TAP_TAPCELL_ROW_13_21
*549 TAP_TAPCELL_ROW_14_22
*550 TAP_TAPCELL_ROW_14_23
*551 TAP_TAPCELL_ROW_15_24
*552 TAP_TAPCELL_ROW_16_25
*553 TAP_TAPCELL_ROW_16_26
*554 TAP_TAPCELL_ROW_17_27
*555 TAP_TAPCELL_ROW_18_28
*556 TAP_TAPCELL_ROW_18_29
*557 TAP_TAPCELL_ROW_19_30
*558 TAP_TAPCELL_ROW_20_31
*559 TAP_TAPCELL_ROW_20_32
*560 TAP_TAPCELL_ROW_21_33
*561 TAP_TAPCELL_ROW_22_34
*562 TAP_TAPCELL_ROW_22_35
*563 TAP_TAPCELL_ROW_23_36
*564 TAP_TAPCELL_ROW_24_37
*565 TAP_TAPCELL_ROW_24_38
*566 TAP_TAPCELL_ROW_25_39
*567 TAP_TAPCELL_ROW_26_40
*568 TAP_TAPCELL_ROW_26_41
*569 TAP_TAPCELL_ROW_27_42
*570 TAP_TAPCELL_ROW_28_43
*571 TAP_TAPCELL_ROW_28_44
*572 TAP_TAPCELL_ROW_29_45
*573 TAP_TAPCELL_ROW_30_46
*574 TAP_TAPCELL_ROW_30_47
*575 TAP_TAPCELL_ROW_31_48
*576 TAP_TAPCELL_ROW_32_49
*577 TAP_TAPCELL_ROW_32_50
*578 TAP_TAPCELL_ROW_33_51
*579 TAP_TAPCELL_ROW_34_52
*580 TAP_TAPCELL_ROW_34_53
*581 TAP_TAPCELL_ROW_35_54
*582 TAP_TAPCELL_ROW_36_55
*583 TAP_TAPCELL_ROW_36_56
*584 TAP_TAPCELL_ROW_37_57
*585 TAP_TAPCELL_ROW_38_58
*586 TAP_TAPCELL_ROW_38_59
*587 TAP_TAPCELL_ROW_39_60
*588 TAP_TAPCELL_ROW_40_61
*589 TAP_TAPCELL_ROW_40_62
*590 TAP_TAPCELL_ROW_41_63
*591 TAP_TAPCELL_ROW_42_64
*592 TAP_TAPCELL_ROW_42_65
*593 TAP_TAPCELL_ROW_43_66
*594 TAP_TAPCELL_ROW_44_67
*595 TAP_TAPCELL_ROW_44_68
*596 TAP_TAPCELL_ROW_45_69
*597 TAP_TAPCELL_ROW_46_70
*598 TAP_TAPCELL_ROW_46_71
*599 TAP_TAPCELL_ROW_47_72
*600 TAP_TAPCELL_ROW_48_73
*601 TAP_TAPCELL_ROW_48_74
*602 TAP_TAPCELL_ROW_49_75
*603 TAP_TAPCELL_ROW_50_76
*604 TAP_TAPCELL_ROW_50_77
*605 TAP_TAPCELL_ROW_51_78
*606 TAP_TAPCELL_ROW_52_79
*607 TAP_TAPCELL_ROW_52_80
*608 TAP_TAPCELL_ROW_53_81
*609 TAP_TAPCELL_ROW_54_82
*610 TAP_TAPCELL_ROW_54_83
*611 TAP_TAPCELL_ROW_55_84
*612 TAP_TAPCELL_ROW_56_85
*613 TAP_TAPCELL_ROW_56_86
*614 TAP_TAPCELL_ROW_57_87
*615 TAP_TAPCELL_ROW_58_88
*616 TAP_TAPCELL_ROW_58_89
*617 TAP_TAPCELL_ROW_59_90
*618 TAP_TAPCELL_ROW_60_91
*619 TAP_TAPCELL_ROW_60_92
*620 TAP_TAPCELL_ROW_60_93
*621 input1
*622 input2
*623 input3
*624 input4
*625 input5
*626 input6
*627 input7
*628 input8
*629 input9
*630 input10
*631 input11
*632 input12
*633 input13
*634 input14
*635 input15
*636 input16
*637 input17
*638 input18
*639 input19
*640 input20
*641 input21
*642 input22
*643 input23
*644 input24
*645 input25
*646 input26
*647 input27
*648 input28
*649 input29
*650 input30
*651 input31
*652 input32
*653 input33
*654 input34
*655 input35
*656 input36
*657 input37
*658 input38
*659 input39
*660 input40
*661 input41
*662 input42
*663 input43
*664 input44
*665 input45
*666 input46
*667 input47
*668 input48
*669 input49
*670 input50
*671 input51
*672 input52
*673 input53
*674 input54
*675 input55
*676 input56
*677 input57
*678 input58
*679 input59
*680 input60
*681 input61
*682 input62
*683 input63
*684 input64
*685 input65
*686 input66
*687 input67
*688 input68
*689 input69
*690 input70
*691 output71
*692 output72
*693 output73
*694 output74
*695 output75
*696 output76
*697 output77
*698 output78
*699 output79
*700 output80
*701 output81
*702 output82
*703 output83
*704 output84
*705 output85
*706 output86
*707 output87
*708 output88
*709 output89
*710 output90
*711 output91
*712 output92
*713 output93
*714 output94
*715 output95
*716 output96
*717 output97
*718 output98
*719 output99
*720 output100
*721 output101
*722 output102
*723 output103
*724 output104
*725 output105
*726 output106
*727 output107
*728 output108
*729 output109
*730 output110
*731 _051__111
*732 _052__112
*733 _053__113
*734 _054__114
*735 _055__115
*736 _056__116
*737 _057__117
*738 _058__118
*739 _059__119
*740 _060__120
*741 _061__121
*742 _062__122
*743 _063__123
*744 _064__124
*745 _065__125
*746 _066__126
*747 _067__127
*748 _068__128
*749 _069__129
*750 _070__130
*751 _071__131
*752 _072__132
*753 _073__133
*754 _074__134
*755 _075__135
*756 _076__136
*757 _077__137
*758 _078__138
*759 _079__139
*760 _080__140
*761 _081__141
*762 _082__142
*763 _083__143
*764 _084__144
*765 _085__145
*766 _092__146
*767 _093__147
*768 _094__148
*769 _095__149
*770 _096__150
*771 _097__151
*772 _098__152
*773 _099__153
*774 _100__154
*775 _101__155
*776 _102__156
*777 _103__157
*778 _104__158
*779 _105__159
*780 _106__160
*781 _107__161
*782 _108__162
*783 _109__163
*784 _110__164
*785 _111__165
*786 _112__166
*787 _113__167
*788 _114__168
*789 _115__169
*790 _116__170
*791 _117__171
*792 _118__172
*793 _119__173
*794 _120__174
*795 _121__175
*796 _122__176
*797 _123__177
*798 _124__178
*799 FILLER_0_8
*800 FILLER_0_16
*801 FILLER_0_24
*802 FILLER_0_28
*803 FILLER_0_31
*804 FILLER_0_39
*805 FILLER_0_47
*806 FILLER_0_55
*807 FILLER_0_59
*808 FILLER_0_61
*809 FILLER_0_69
*810 FILLER_0_77
*811 FILLER_0_85
*812 FILLER_0_89
*813 FILLER_0_94
*814 FILLER_0_101
*815 FILLER_0_105
*816 FILLER_0_109
*817 FILLER_1_0
*818 FILLER_1_8
*819 FILLER_1_16
*820 FILLER_1_24
*821 FILLER_1_32
*822 FILLER_1_40
*823 FILLER_1_48
*824 FILLER_1_56
*825 FILLER_1_61
*826 FILLER_1_69
*827 FILLER_1_77
*828 FILLER_1_85
*829 FILLER_1_93
*830 FILLER_1_95
*831 FILLER_1_99
*832 FILLER_1_109
*833 FILLER_2_6
*834 FILLER_2_11
*835 FILLER_2_19
*836 FILLER_2_27
*837 FILLER_2_29
*838 FILLER_2_31
*839 FILLER_2_39
*840 FILLER_2_47
*841 FILLER_2_55
*842 FILLER_2_63
*843 FILLER_2_71
*844 FILLER_2_79
*845 FILLER_2_87
*846 FILLER_2_89
*847 FILLER_2_91
*848 FILLER_2_99
*849 FILLER_2_101
*850 FILLER_2_112
*851 FILLER_2_114
*852 FILLER_2_118
*853 FILLER_3_15
*854 FILLER_3_23
*855 FILLER_3_31
*856 FILLER_3_39
*857 FILLER_3_47
*858 FILLER_3_55
*859 FILLER_3_59
*860 FILLER_3_61
*861 FILLER_3_69
*862 FILLER_3_77
*863 FILLER_3_85
*864 FILLER_3_93
*865 FILLER_3_101
*866 FILLER_3_112
*867 FILLER_3_116
*868 FILLER_4_0
*869 FILLER_4_4
*870 FILLER_4_14
*871 FILLER_4_21
*872 FILLER_4_29
*873 FILLER_4_31
*874 FILLER_4_39
*875 FILLER_4_47
*876 FILLER_4_55
*877 FILLER_4_63
*878 FILLER_4_65
*879 FILLER_4_72
*880 FILLER_4_80
*881 FILLER_4_88
*882 FILLER_4_91
*883 FILLER_4_99
*884 FILLER_4_112
*885 FILLER_4_116
*886 FILLER_5_0
*887 FILLER_5_8
*888 FILLER_5_16
*889 FILLER_5_24
*890 FILLER_5_32
*891 FILLER_5_40
*892 FILLER_5_48
*893 FILLER_5_56
*894 FILLER_5_61
*895 FILLER_5_63
*896 FILLER_5_67
*897 FILLER_5_75
*898 FILLER_5_83
*899 FILLER_5_91
*900 FILLER_5_99
*901 FILLER_5_107
*902 FILLER_5_111
*903 FILLER_5_113
*904 FILLER_6_0
*905 FILLER_6_2
*906 FILLER_6_6
*907 FILLER_6_14
*908 FILLER_6_22
*909 FILLER_6_31
*910 FILLER_6_39
*911 FILLER_6_47
*912 FILLER_6_55
*913 FILLER_6_63
*914 FILLER_6_71
*915 FILLER_6_79
*916 FILLER_6_87
*917 FILLER_6_89
*918 FILLER_6_91
*919 FILLER_6_99
*920 FILLER_6_107
*921 FILLER_7_3
*922 FILLER_7_10
*923 FILLER_7_18
*924 FILLER_7_26
*925 FILLER_7_34
*926 FILLER_7_42
*927 FILLER_7_50
*928 FILLER_7_58
*929 FILLER_7_61
*930 FILLER_7_69
*931 FILLER_7_77
*932 FILLER_7_85
*933 FILLER_7_93
*934 FILLER_7_101
*935 FILLER_7_105
*936 FILLER_7_109
*937 FILLER_8_0
*938 FILLER_8_8
*939 FILLER_8_16
*940 FILLER_8_24
*941 FILLER_8_28
*942 FILLER_8_31
*943 FILLER_8_39
*944 FILLER_8_47
*945 FILLER_8_55
*946 FILLER_8_63
*947 FILLER_8_71
*948 FILLER_8_79
*949 FILLER_8_87
*950 FILLER_8_89
*951 FILLER_8_91
*952 FILLER_8_99
*953 FILLER_8_103
*954 FILLER_8_110
*955 FILLER_8_118
*956 FILLER_9_0
*957 FILLER_9_2
*958 FILLER_9_12
*959 FILLER_9_20
*960 FILLER_9_28
*961 FILLER_9_36
*962 FILLER_9_44
*963 FILLER_9_52
*964 FILLER_9_61
*965 FILLER_9_69
*966 FILLER_9_77
*967 FILLER_9_85
*968 FILLER_9_93
*969 FILLER_9_101
*970 FILLER_9_109
*971 FILLER_9_119
*972 FILLER_10_3
*973 FILLER_10_7
*974 FILLER_10_14
*975 FILLER_10_22
*976 FILLER_10_31
*977 FILLER_10_39
*978 FILLER_10_47
*979 FILLER_10_55
*980 FILLER_10_63
*981 FILLER_10_71
*982 FILLER_10_79
*983 FILLER_10_87
*984 FILLER_10_89
*985 FILLER_10_91
*986 FILLER_10_99
*987 FILLER_10_107
*988 FILLER_10_112
*989 FILLER_10_119
*990 FILLER_11_6
*991 FILLER_11_8
*992 FILLER_11_12
*993 FILLER_11_20
*994 FILLER_11_28
*995 FILLER_11_36
*996 FILLER_11_44
*997 FILLER_11_52
*998 FILLER_11_61
*999 FILLER_11_69
*1000 FILLER_11_77
*1001 FILLER_11_85
*1002 FILLER_11_93
*1003 FILLER_11_101
*1004 FILLER_11_112
*1005 FILLER_11_119
*1006 FILLER_12_0
*1007 FILLER_12_17
*1008 FILLER_12_25
*1009 FILLER_12_29
*1010 FILLER_12_31
*1011 FILLER_12_39
*1012 FILLER_12_47
*1013 FILLER_12_55
*1014 FILLER_12_63
*1015 FILLER_12_71
*1016 FILLER_12_79
*1017 FILLER_12_87
*1018 FILLER_12_89
*1019 FILLER_12_91
*1020 FILLER_12_99
*1021 FILLER_12_103
*1022 FILLER_12_105
*1023 FILLER_12_115
*1024 FILLER_12_119
*1025 FILLER_13_9
*1026 FILLER_13_17
*1027 FILLER_13_25
*1028 FILLER_13_33
*1029 FILLER_13_41
*1030 FILLER_13_49
*1031 FILLER_13_57
*1032 FILLER_13_59
*1033 FILLER_13_61
*1034 FILLER_13_69
*1035 FILLER_13_77
*1036 FILLER_13_85
*1037 FILLER_13_93
*1038 FILLER_13_101
*1039 FILLER_13_105
*1040 FILLER_13_115
*1041 FILLER_13_119
*1042 FILLER_14_9
*1043 FILLER_14_17
*1044 FILLER_14_25
*1045 FILLER_14_29
*1046 FILLER_14_31
*1047 FILLER_14_39
*1048 FILLER_14_47
*1049 FILLER_14_55
*1050 FILLER_14_63
*1051 FILLER_14_71
*1052 FILLER_14_79
*1053 FILLER_14_87
*1054 FILLER_14_89
*1055 FILLER_14_91
*1056 FILLER_14_95
*1057 FILLER_14_97
*1058 FILLER_14_107
*1059 FILLER_14_111
*1060 FILLER_14_115
*1061 FILLER_14_119
*1062 FILLER_15_0
*1063 FILLER_15_11
*1064 FILLER_15_19
*1065 FILLER_15_27
*1066 FILLER_15_35
*1067 FILLER_15_43
*1068 FILLER_15_51
*1069 FILLER_15_59
*1070 FILLER_15_61
*1071 FILLER_15_69
*1072 FILLER_15_77
*1073 FILLER_15_85
*1074 FILLER_15_93
*1075 FILLER_15_101
*1076 FILLER_15_109
*1077 FILLER_15_113
*1078 FILLER_16_0
*1079 FILLER_16_11
*1080 FILLER_16_19
*1081 FILLER_16_27
*1082 FILLER_16_29
*1083 FILLER_16_31
*1084 FILLER_16_39
*1085 FILLER_16_47
*1086 FILLER_16_55
*1087 FILLER_16_63
*1088 FILLER_16_71
*1089 FILLER_16_79
*1090 FILLER_16_87
*1091 FILLER_16_89
*1092 FILLER_16_91
*1093 FILLER_16_99
*1094 FILLER_16_107
*1095 FILLER_16_111
*1096 FILLER_16_118
*1097 FILLER_17_0
*1098 FILLER_17_10
*1099 FILLER_17_18
*1100 FILLER_17_26
*1101 FILLER_17_34
*1102 FILLER_17_42
*1103 FILLER_17_50
*1104 FILLER_17_58
*1105 FILLER_17_61
*1106 FILLER_17_69
*1107 FILLER_17_77
*1108 FILLER_17_85
*1109 FILLER_17_93
*1110 FILLER_17_97
*1111 FILLER_17_99
*1112 FILLER_17_103
*1113 FILLER_18_0
*1114 FILLER_18_11
*1115 FILLER_18_19
*1116 FILLER_18_27
*1117 FILLER_18_29
*1118 FILLER_18_31
*1119 FILLER_18_39
*1120 FILLER_18_47
*1121 FILLER_18_55
*1122 FILLER_18_63
*1123 FILLER_18_71
*1124 FILLER_18_79
*1125 FILLER_18_87
*1126 FILLER_18_89
*1127 FILLER_18_91
*1128 FILLER_18_99
*1129 FILLER_18_107
*1130 FILLER_19_3
*1131 FILLER_19_10
*1132 FILLER_19_18
*1133 FILLER_19_26
*1134 FILLER_19_34
*1135 FILLER_19_42
*1136 FILLER_19_50
*1137 FILLER_19_58
*1138 FILLER_19_61
*1139 FILLER_19_69
*1140 FILLER_19_77
*1141 FILLER_19_85
*1142 FILLER_19_93
*1143 FILLER_19_101
*1144 FILLER_19_109
*1145 FILLER_20_6
*1146 FILLER_20_16
*1147 FILLER_20_24
*1148 FILLER_20_28
*1149 FILLER_20_31
*1150 FILLER_20_39
*1151 FILLER_20_47
*1152 FILLER_20_55
*1153 FILLER_20_63
*1154 FILLER_20_71
*1155 FILLER_20_79
*1156 FILLER_20_87
*1157 FILLER_20_89
*1158 FILLER_20_91
*1159 FILLER_20_99
*1160 FILLER_20_107
*1161 FILLER_20_117
*1162 FILLER_20_119
*1163 FILLER_21_0
*1164 FILLER_21_4
*1165 FILLER_21_12
*1166 FILLER_21_20
*1167 FILLER_21_28
*1168 FILLER_21_36
*1169 FILLER_21_44
*1170 FILLER_21_52
*1171 FILLER_21_61
*1172 FILLER_21_69
*1173 FILLER_21_77
*1174 FILLER_21_85
*1175 FILLER_21_93
*1176 FILLER_21_101
*1177 FILLER_21_109
*1178 FILLER_22_0
*1179 FILLER_22_4
*1180 FILLER_22_6
*1181 FILLER_22_16
*1182 FILLER_22_24
*1183 FILLER_22_28
*1184 FILLER_22_31
*1185 FILLER_22_39
*1186 FILLER_22_47
*1187 FILLER_22_55
*1188 FILLER_22_63
*1189 FILLER_22_71
*1190 FILLER_22_79
*1191 FILLER_22_87
*1192 FILLER_22_89
*1193 FILLER_22_91
*1194 FILLER_22_99
*1195 FILLER_22_103
*1196 FILLER_22_113
*1197 FILLER_22_117
*1198 FILLER_22_119
*1199 FILLER_23_0
*1200 FILLER_23_13
*1201 FILLER_23_21
*1202 FILLER_23_29
*1203 FILLER_23_37
*1204 FILLER_23_45
*1205 FILLER_23_53
*1206 FILLER_23_57
*1207 FILLER_23_59
*1208 FILLER_23_61
*1209 FILLER_23_69
*1210 FILLER_23_77
*1211 FILLER_23_85
*1212 FILLER_23_93
*1213 FILLER_23_101
*1214 FILLER_23_109
*1215 FILLER_23_119
*1216 FILLER_24_3
*1217 FILLER_24_14
*1218 FILLER_24_22
*1219 FILLER_24_31
*1220 FILLER_24_39
*1221 FILLER_24_47
*1222 FILLER_24_55
*1223 FILLER_24_63
*1224 FILLER_24_71
*1225 FILLER_24_79
*1226 FILLER_24_87
*1227 FILLER_24_89
*1228 FILLER_24_91
*1229 FILLER_24_99
*1230 FILLER_24_107
*1231 FILLER_25_0
*1232 FILLER_25_8
*1233 FILLER_25_12
*1234 FILLER_25_20
*1235 FILLER_25_28
*1236 FILLER_25_36
*1237 FILLER_25_44
*1238 FILLER_25_52
*1239 FILLER_25_61
*1240 FILLER_25_69
*1241 FILLER_25_77
*1242 FILLER_25_85
*1243 FILLER_25_93
*1244 FILLER_25_101
*1245 FILLER_25_109
*1246 FILLER_25_119
*1247 FILLER_26_3
*1248 FILLER_26_11
*1249 FILLER_26_19
*1250 FILLER_26_27
*1251 FILLER_26_29
*1252 FILLER_26_31
*1253 FILLER_26_39
*1254 FILLER_26_47
*1255 FILLER_26_55
*1256 FILLER_26_63
*1257 FILLER_26_71
*1258 FILLER_26_79
*1259 FILLER_26_87
*1260 FILLER_26_89
*1261 FILLER_26_91
*1262 FILLER_26_99
*1263 FILLER_26_103
*1264 FILLER_26_107
*1265 FILLER_26_115
*1266 FILLER_26_119
*1267 FILLER_27_9
*1268 FILLER_27_17
*1269 FILLER_27_25
*1270 FILLER_27_33
*1271 FILLER_27_41
*1272 FILLER_27_49
*1273 FILLER_27_57
*1274 FILLER_27_59
*1275 FILLER_27_61
*1276 FILLER_27_69
*1277 FILLER_27_77
*1278 FILLER_27_85
*1279 FILLER_27_93
*1280 FILLER_27_101
*1281 FILLER_27_105
*1282 FILLER_27_115
*1283 FILLER_27_119
*1284 FILLER_28_0
*1285 FILLER_28_8
*1286 FILLER_28_16
*1287 FILLER_28_24
*1288 FILLER_28_28
*1289 FILLER_28_31
*1290 FILLER_28_39
*1291 FILLER_28_47
*1292 FILLER_28_55
*1293 FILLER_28_63
*1294 FILLER_28_71
*1295 FILLER_28_79
*1296 FILLER_28_87
*1297 FILLER_28_89
*1298 FILLER_28_91
*1299 FILLER_28_99
*1300 FILLER_28_107
*1301 FILLER_28_118
*1302 FILLER_29_3
*1303 FILLER_29_8
*1304 FILLER_29_15
*1305 FILLER_29_23
*1306 FILLER_29_31
*1307 FILLER_29_39
*1308 FILLER_29_47
*1309 FILLER_29_55
*1310 FILLER_29_59
*1311 FILLER_29_61
*1312 FILLER_29_69
*1313 FILLER_29_77
*1314 FILLER_29_85
*1315 FILLER_29_93
*1316 FILLER_29_101
*1317 FILLER_29_105
*1318 FILLER_29_115
*1319 FILLER_29_119
*1320 FILLER_30_12
*1321 FILLER_30_20
*1322 FILLER_30_28
*1323 FILLER_30_31
*1324 FILLER_30_39
*1325 FILLER_30_47
*1326 FILLER_30_55
*1327 FILLER_30_63
*1328 FILLER_30_71
*1329 FILLER_30_79
*1330 FILLER_30_87
*1331 FILLER_30_89
*1332 FILLER_30_91
*1333 FILLER_30_99
*1334 FILLER_30_103
*1335 FILLER_30_105
*1336 FILLER_30_115
*1337 FILLER_30_119
*1338 FILLER_31_12
*1339 FILLER_31_16
*1340 FILLER_31_23
*1341 FILLER_31_31
*1342 FILLER_31_39
*1343 FILLER_31_47
*1344 FILLER_31_55
*1345 FILLER_31_59
*1346 FILLER_31_61
*1347 FILLER_31_69
*1348 FILLER_31_77
*1349 FILLER_31_85
*1350 FILLER_31_93
*1351 FILLER_31_101
*1352 FILLER_31_105
*1353 FILLER_31_107
*1354 FILLER_31_117
*1355 FILLER_31_119
*1356 FILLER_32_0
*1357 FILLER_32_4
*1358 FILLER_32_15
*1359 FILLER_32_20
*1360 FILLER_32_28
*1361 FILLER_32_31
*1362 FILLER_32_39
*1363 FILLER_32_47
*1364 FILLER_32_55
*1365 FILLER_32_63
*1366 FILLER_32_71
*1367 FILLER_32_79
*1368 FILLER_32_87
*1369 FILLER_32_89
*1370 FILLER_32_91
*1371 FILLER_32_99
*1372 FILLER_32_103
*1373 FILLER_33_0
*1374 FILLER_33_10
*1375 FILLER_33_18
*1376 FILLER_33_26
*1377 FILLER_33_34
*1378 FILLER_33_42
*1379 FILLER_33_50
*1380 FILLER_33_58
*1381 FILLER_33_61
*1382 FILLER_33_69
*1383 FILLER_33_77
*1384 FILLER_33_85
*1385 FILLER_33_93
*1386 FILLER_33_101
*1387 FILLER_33_106
*1388 FILLER_34_0
*1389 FILLER_34_8
*1390 FILLER_34_16
*1391 FILLER_34_24
*1392 FILLER_34_28
*1393 FILLER_34_31
*1394 FILLER_34_39
*1395 FILLER_34_47
*1396 FILLER_34_55
*1397 FILLER_34_63
*1398 FILLER_34_71
*1399 FILLER_34_79
*1400 FILLER_34_87
*1401 FILLER_34_89
*1402 FILLER_34_91
*1403 FILLER_34_99
*1404 FILLER_34_109
*1405 FILLER_34_111
*1406 FILLER_34_115
*1407 FILLER_35_0
*1408 FILLER_35_10
*1409 FILLER_35_18
*1410 FILLER_35_26
*1411 FILLER_35_34
*1412 FILLER_35_42
*1413 FILLER_35_50
*1414 FILLER_35_58
*1415 FILLER_35_61
*1416 FILLER_35_69
*1417 FILLER_35_77
*1418 FILLER_35_85
*1419 FILLER_35_93
*1420 FILLER_35_101
*1421 FILLER_35_112
*1422 FILLER_35_116
*1423 FILLER_36_9
*1424 FILLER_36_14
*1425 FILLER_36_22
*1426 FILLER_36_31
*1427 FILLER_36_39
*1428 FILLER_36_47
*1429 FILLER_36_55
*1430 FILLER_36_63
*1431 FILLER_36_71
*1432 FILLER_36_79
*1433 FILLER_36_87
*1434 FILLER_36_89
*1435 FILLER_36_91
*1436 FILLER_36_99
*1437 FILLER_36_107
*1438 FILLER_36_111
*1439 FILLER_36_113
*1440 FILLER_37_6
*1441 FILLER_37_16
*1442 FILLER_37_24
*1443 FILLER_37_32
*1444 FILLER_37_40
*1445 FILLER_37_48
*1446 FILLER_37_56
*1447 FILLER_37_61
*1448 FILLER_37_69
*1449 FILLER_37_77
*1450 FILLER_37_85
*1451 FILLER_37_93
*1452 FILLER_37_101
*1453 FILLER_37_106
*1454 FILLER_37_114
*1455 FILLER_37_118
*1456 FILLER_38_3
*1457 FILLER_38_5
*1458 FILLER_38_18
*1459 FILLER_38_26
*1460 FILLER_38_31
*1461 FILLER_38_39
*1462 FILLER_38_47
*1463 FILLER_38_55
*1464 FILLER_38_63
*1465 FILLER_38_71
*1466 FILLER_38_79
*1467 FILLER_38_87
*1468 FILLER_38_89
*1469 FILLER_38_91
*1470 FILLER_38_99
*1471 FILLER_38_113
*1472 FILLER_38_117
*1473 FILLER_38_119
*1474 FILLER_39_0
*1475 FILLER_39_4
*1476 FILLER_39_14
*1477 FILLER_39_22
*1478 FILLER_39_30
*1479 FILLER_39_38
*1480 FILLER_39_46
*1481 FILLER_39_54
*1482 FILLER_39_58
*1483 FILLER_39_61
*1484 FILLER_39_69
*1485 FILLER_39_77
*1486 FILLER_39_85
*1487 FILLER_39_93
*1488 FILLER_39_101
*1489 FILLER_39_117
*1490 FILLER_39_119
*1491 FILLER_40_6
*1492 FILLER_40_14
*1493 FILLER_40_22
*1494 FILLER_40_31
*1495 FILLER_40_39
*1496 FILLER_40_47
*1497 FILLER_40_55
*1498 FILLER_40_63
*1499 FILLER_40_71
*1500 FILLER_40_79
*1501 FILLER_40_87
*1502 FILLER_40_89
*1503 FILLER_40_91
*1504 FILLER_40_99
*1505 FILLER_40_101
*1506 FILLER_41_9
*1507 FILLER_41_17
*1508 FILLER_41_25
*1509 FILLER_41_33
*1510 FILLER_41_41
*1511 FILLER_41_49
*1512 FILLER_41_57
*1513 FILLER_41_59
*1514 FILLER_41_61
*1515 FILLER_41_69
*1516 FILLER_41_77
*1517 FILLER_41_85
*1518 FILLER_41_93
*1519 FILLER_41_101
*1520 FILLER_41_109
*1521 FILLER_41_113
*1522 FILLER_42_3
*1523 FILLER_42_8
*1524 FILLER_42_16
*1525 FILLER_42_24
*1526 FILLER_42_28
*1527 FILLER_42_31
*1528 FILLER_42_39
*1529 FILLER_42_47
*1530 FILLER_42_55
*1531 FILLER_42_63
*1532 FILLER_42_71
*1533 FILLER_42_79
*1534 FILLER_42_87
*1535 FILLER_42_89
*1536 FILLER_42_91
*1537 FILLER_42_99
*1538 FILLER_42_103
*1539 FILLER_43_12
*1540 FILLER_43_20
*1541 FILLER_43_28
*1542 FILLER_43_36
*1543 FILLER_43_44
*1544 FILLER_43_52
*1545 FILLER_43_61
*1546 FILLER_43_69
*1547 FILLER_43_77
*1548 FILLER_43_85
*1549 FILLER_43_93
*1550 FILLER_43_101
*1551 FILLER_43_105
*1552 FILLER_43_110
*1553 FILLER_43_118
*1554 FILLER_44_0
*1555 FILLER_44_7
*1556 FILLER_44_15
*1557 FILLER_44_23
*1558 FILLER_44_27
*1559 FILLER_44_29
*1560 FILLER_44_31
*1561 FILLER_44_39
*1562 FILLER_44_47
*1563 FILLER_44_55
*1564 FILLER_44_63
*1565 FILLER_44_71
*1566 FILLER_44_79
*1567 FILLER_44_87
*1568 FILLER_44_89
*1569 FILLER_44_91
*1570 FILLER_44_99
*1571 FILLER_44_107
*1572 FILLER_45_6
*1573 FILLER_45_14
*1574 FILLER_45_22
*1575 FILLER_45_30
*1576 FILLER_45_38
*1577 FILLER_45_46
*1578 FILLER_45_54
*1579 FILLER_45_58
*1580 FILLER_45_61
*1581 FILLER_45_69
*1582 FILLER_45_77
*1583 FILLER_45_85
*1584 FILLER_45_93
*1585 FILLER_45_101
*1586 FILLER_45_105
*1587 FILLER_45_115
*1588 FILLER_46_3
*1589 FILLER_46_10
*1590 FILLER_46_18
*1591 FILLER_46_26
*1592 FILLER_46_31
*1593 FILLER_46_39
*1594 FILLER_46_47
*1595 FILLER_46_55
*1596 FILLER_46_63
*1597 FILLER_46_71
*1598 FILLER_46_79
*1599 FILLER_46_87
*1600 FILLER_46_89
*1601 FILLER_46_91
*1602 FILLER_46_99
*1603 FILLER_46_112
*1604 FILLER_47_3
*1605 FILLER_47_14
*1606 FILLER_47_22
*1607 FILLER_47_30
*1608 FILLER_47_38
*1609 FILLER_47_46
*1610 FILLER_47_54
*1611 FILLER_47_58
*1612 FILLER_47_61
*1613 FILLER_47_69
*1614 FILLER_47_77
*1615 FILLER_47_85
*1616 FILLER_47_93
*1617 FILLER_47_101
*1618 FILLER_47_108
*1619 FILLER_47_116
*1620 FILLER_48_12
*1621 FILLER_48_20
*1622 FILLER_48_28
*1623 FILLER_48_31
*1624 FILLER_48_39
*1625 FILLER_48_47
*1626 FILLER_48_55
*1627 FILLER_48_63
*1628 FILLER_48_71
*1629 FILLER_48_79
*1630 FILLER_48_87
*1631 FILLER_48_89
*1632 FILLER_48_91
*1633 FILLER_48_99
*1634 FILLER_48_107
*1635 FILLER_48_111
*1636 FILLER_48_113
*1637 FILLER_48_117
*1638 FILLER_48_119
*1639 FILLER_49_11
*1640 FILLER_49_19
*1641 FILLER_49_27
*1642 FILLER_49_35
*1643 FILLER_49_43
*1644 FILLER_49_51
*1645 FILLER_49_59
*1646 FILLER_49_61
*1647 FILLER_49_69
*1648 FILLER_49_77
*1649 FILLER_49_85
*1650 FILLER_49_93
*1651 FILLER_49_101
*1652 FILLER_49_117
*1653 FILLER_49_119
*1654 FILLER_50_0
*1655 FILLER_50_8
*1656 FILLER_50_16
*1657 FILLER_50_24
*1658 FILLER_50_28
*1659 FILLER_50_31
*1660 FILLER_50_39
*1661 FILLER_50_47
*1662 FILLER_50_55
*1663 FILLER_50_63
*1664 FILLER_50_71
*1665 FILLER_50_79
*1666 FILLER_50_87
*1667 FILLER_50_89
*1668 FILLER_50_91
*1669 FILLER_50_99
*1670 FILLER_50_103
*1671 FILLER_51_9
*1672 FILLER_51_17
*1673 FILLER_51_25
*1674 FILLER_51_33
*1675 FILLER_51_41
*1676 FILLER_51_49
*1677 FILLER_51_57
*1678 FILLER_51_59
*1679 FILLER_51_61
*1680 FILLER_51_69
*1681 FILLER_51_77
*1682 FILLER_51_85
*1683 FILLER_51_93
*1684 FILLER_51_101
*1685 FILLER_51_117
*1686 FILLER_51_119
*1687 FILLER_52_6
*1688 FILLER_52_14