*SPEF "ieee 1481-1999"
*DESIGN "ibex_load_store_unit"
*DATE "22:45:17 Monday March 24, 2025"
*VENDOR "The OpenROAD Project"
*PROGRAM "OpenROAD"
*VERSION "v2.0-19351-g6c51970ad"
*DESIGN_FLOW "NAME_SCOPE LOCAL" "PIN_CAP NONE"
*DIVIDER /
*DELIMITER :
*BUS_DELIMITER []
*T_UNIT 1 NS
*C_UNIT 1 PF
*R_UNIT 1 OHM
*L_UNIT 1 HENRY

*NAME_MAP
*1 _0000_
*2 _0001_
*3 _0002_
*4 _0003_
*5 _0004_
*6 _0005_
*7 _0006_
*8 _0007_
*9 _0008_
*10 _0009_
*11 _0010_
*12 _0011_
*13 _0012_
*14 _0013_
*15 _0014_
*16 _0015_
*17 _0016_
*18 _0017_
*19 _0018_
*20 _0019_
*21 _0020_
*22 _0021_
*23 _0022_
*24 _0023_
*25 _0024_
*26 _0025_
*27 _0026_
*28 _0027_
*29 _0028_
*30 _0029_
*31 _0030_
*32 _0031_
*33 _0032_
*34 _0033_
*35 _0034_
*36 _0035_
*37 _0036_
*38 _0037_
*39 _0038_
*40 _0039_
*41 _0040_
*42 _0041_
*43 _0042_
*44 _0043_
*45 _0044_
*46 _0045_
*47 _0046_
*48 _0047_
*49 _0048_
*50 _0049_
*51 _0050_
*52 _0051_
*53 _0052_
*54 _0053_
*55 _0054_
*56 _0055_
*57 _0056_
*58 _0057_
*59 _0058_
*60 _0059_
*61 _0060_
*62 _0061_
*63 _0062_
*64 _0063_
*65 _0064_
*66 _0065_
*67 _0066_
*68 _0067_
*69 _0068_
*70 _0069_
*71 _0070_
*72 _0071_
*73 _0072_
*74 _0073_
*75 _0074_
*76 _0075_
*77 _0076_
*78 _0077_
*79 _0078_
*80 _0079_
*81 _0080_
*82 _0081_
*83 _0082_
*84 _0083_
*85 _0084_
*86 _0085_
*87 _0086_
*88 _0087_
*89 _0088_
*90 _0089_
*91 _0090_
*92 _0091_
*93 _0092_
*94 _0093_
*95 _0094_
*96 _0095_
*97 _0096_
*98 _0097_
*99 _0098_
*100 _0099_
*101 _0100_
*102 _0101_
*103 _0102_
*104 _0103_
*105 _0104_
*106 _0105_
*107 _0106_
*108 _0107_
*109 _0108_
*110 _0109_
*111 _0110_
*112 _0111_
*113 _0112_
*114 _0113_
*115 _0114_
*116 _0115_
*117 _0116_
*118 _0117_
*119 _0118_
*120 _0119_
*121 _0120_
*122 _0121_
*123 _0122_
*124 _0123_
*125 _0124_
*126 _0125_
*127 _0126_
*128 _0127_
*129 _0128_
*130 _0129_
*131 _0130_
*132 _0131_
*133 _0132_
*134 _0133_
*135 _0134_
*136 _0135_
*137 _0136_
*138 _0137_
*139 _0138_
*140 _0139_
*141 _0140_
*142 _0141_
*143 _0142_
*144 _0143_
*145 _0144_
*146 _0145_
*147 _0146_
*148 _0147_
*149 _0148_
*150 _0149_
*151 _0150_
*152 _0151_
*153 _0152_
*154 _0153_
*155 _0154_
*156 _0155_
*157 _0156_
*158 _0157_
*159 _0158_
*160 _0159_
*161 _0160_
*162 _0161_
*163 _0162_
*164 _0163_
*165 _0164_
*166 _0165_
*167 _0166_
*168 _0167_
*169 _0168_
*170 _0169_
*171 _0170_
*172 _0171_
*173 _0172_
*174 _0173_
*175 _0174_
*176 _0175_
*177 _0176_
*178 _0177_
*179 _0178_
*180 _0179_
*181 _0180_
*182 _0181_
*183 _0182_
*184 _0183_
*185 _0184_
*186 _0185_
*187 _0186_
*188 _0187_
*189 _0188_
*190 _0189_
*191 _0190_
*192 _0191_
*193 _0192_
*194 _0193_
*195 _0194_
*196 _0195_
*197 _0196_
*198 _0197_
*199 _0198_
*200 _0199_
*201 _0200_
*202 _0201_
*203 _0202_
*204 _0203_
*205 _0204_
*206 _0205_
*207 _0206_
*208 _0207_
*209 _0208_
*210 _0209_
*211 _0210_
*212 _0211_
*213 _0212_
*214 _0213_
*215 _0214_
*216 _0215_
*217 _0216_
*218 _0217_
*219 _0218_
*220 _0219_
*221 _0220_
*222 _0221_
*223 _0222_
*224 _0223_
*225 _0224_
*226 _0225_
*227 _0226_
*228 _0227_
*229 _0228_
*230 _0229_
*231 _0230_
*232 _0231_
*233 _0232_
*234 _0233_
*235 _0234_
*236 _0235_
*237 _0236_
*238 _0237_
*239 _0238_
*240 _0239_
*241 _0240_
*242 _0241_
*243 _0242_
*244 _0243_
*245 _0244_
*246 _0245_
*247 _0246_
*248 _0247_
*249 _0248_
*250 _0249_
*251 _0250_
*252 _0251_
*253 _0252_
*254 _0253_
*255 _0254_
*256 _0255_
*257 _0256_
*258 _0257_
*259 _0258_
*260 _0259_
*261 _0260_
*262 _0261_
*263 _0262_
*264 _0263_
*265 _0264_
*266 _0265_
*267 _0266_
*268 _0267_
*269 _0268_
*270 _0269_
*271 _0270_
*272 _0271_
*273 _0272_
*274 _0273_
*275 _0274_
*276 _0275_
*277 _0276_
*278 _0277_
*279 _0278_
*280 _0279_
*281 _0280_
*282 _0281_
*283 _0282_
*284 _0283_
*285 _0284_
*286 _0285_
*287 _0286_
*288 _0287_
*289 _0288_
*290 _0289_
*291 _0290_
*292 _0291_
*293 _0292_
*294 _0293_
*295 _0294_
*296 _0295_
*297 _0296_
*298 _0297_
*299 _0298_
*300 _0299_
*301 _0300_
*302 _0301_
*303 _0302_
*304 _0303_
*305 _0304_
*306 _0305_
*307 _0306_
*308 _0307_
*309 _0308_
*310 _0309_
*311 _0310_
*312 _0311_
*313 _0312_
*314 _0313_
*315 _0314_
*316 _0315_
*317 _0316_
*318 _0317_
*319 _0318_
*320 _0319_
*321 _0320_
*322 _0321_
*323 _0322_
*324 _0323_
*325 _0324_
*326 _0325_
*327 _0326_
*328 _0327_
*329 _0328_
*330 _0329_
*331 _0330_
*332 _0331_
*333 _0332_
*334 _0333_
*335 _0334_
*336 _0335_
*337 _0336_
*338 _0337_
*339 _0338_
*340 _0339_
*341 _0340_
*342 _0341_
*343 _0342_
*344 _0343_
*345 _0344_
*346 _0345_
*347 _0346_
*348 _0347_
*349 _0348_
*350 _0349_
*351 _0350_
*352 _0351_
*353 _0352_
*354 _0353_
*355 _0354_
*356 _0355_
*357 _0356_
*358 _0357_
*359 _0358_
*360 _0359_
*361 _0360_
*362 _0361_
*363 _0362_
*364 _0363_
*365 _0364_
*366 _0365_
*367 _0366_
*368 _0367_
*369 _0368_
*370 _0369_
*371 _0370_
*372 _0371_
*373 _0372_
*374 _0373_
*375 _0374_
*376 _0375_
*377 _0376_
*378 _0377_
*379 _0378_
*380 _0379_
*381 _0380_
*382 _0381_
*383 _0382_
*384 _0383_
*385 _0384_
*386 _0385_
*387 _0386_
*388 _0387_
*389 _0388_
*390 _0389_
*391 _0390_
*392 _0391_
*393 _0392_
*394 _0393_
*395 _0394_
*396 _0395_
*397 _0396_
*398 _0397_
*399 _0398_
*400 _0399_
*401 _0400_
*402 _0401_
*403 _0402_
*404 _0403_
*405 _0404_
*406 _0405_
*407 _0406_
*408 _0407_
*409 _0408_
*410 _0409_
*411 _0410_
*412 _0411_
*413 _0412_
*414 _0413_
*415 _0414_
*416 _0415_
*417 _0416_
*418 _0417_
*419 _0418_
*420 _0419_
*421 _0420_
*422 _0421_
*423 _0422_
*424 _0423_
*425 _0424_
*426 _0425_
*427 _0426_
*428 _0427_
*429 _0428_
*430 _0429_
*431 _0430_
*432 _0431_
*433 _0432_
*434 _0433_
*435 _0434_
*436 _0435_
*437 _0436_
*438 _0437_
*439 _0438_
*440 _0439_
*441 _0440_
*442 _0441_
*443 _0442_
*444 _0443_
*445 _0444_
*446 _0445_
*447 _0446_
*448 _0447_
*449 clknet_0_clk_i
*450 adder_result_ex_i[0]
*451 adder_result_ex_i[10]
*452 adder_result_ex_i[11]
*453 adder_result_ex_i[12]
*454 adder_result_ex_i[13]
*455 adder_result_ex_i[14]
*456 adder_result_ex_i[15]
*457 adder_result_ex_i[16]
*458 adder_result_ex_i[17]
*459 adder_result_ex_i[18]
*460 adder_result_ex_i[19]
*461 adder_result_ex_i[1]
*462 adder_result_ex_i[20]
*463 adder_result_ex_i[21]
*464 adder_result_ex_i[22]
*465 adder_result_ex_i[23]
*466 adder_result_ex_i[24]
*467 adder_result_ex_i[25]
*468 adder_result_ex_i[26]
*469 adder_result_ex_i[27]
*470 adder_result_ex_i[28]
*471 adder_result_ex_i[29]
*472 adder_result_ex_i[2]
*473 adder_result_ex_i[30]
*474 adder_result_ex_i[31]
*475 adder_result_ex_i[3]
*476 adder_result_ex_i[4]
*477 adder_result_ex_i[5]
*478 adder_result_ex_i[6]
*479 adder_result_ex_i[7]
*480 adder_result_ex_i[8]
*481 adder_result_ex_i[9]
*482 net106
*483 net107
*484 net108
*485 net109
*486 net110
*487 net111
*488 net112
*489 net113
*490 net114
*491 net115
*492 net116
*493 net117
*494 net118
*495 net119
*496 net120
*497 net121
*498 net122
*499 net123
*500 net124
*501 net125
*502 net126
*503 net127
*504 net128
*505 net129
*506 net130
*507 net131
*508 net132
*509 net133
*510 net134
*511 net135
*512 net136
*513 net137
*514 net138
*515 net139
*516 clk_i
*517 data_addr_o[0]
*518 net140
*519 net141
*520 net142
*521 net143
*522 net144
*523 net145
*524 net146
*525 net147
*526 net148
*527 net149
*528 data_addr_o[1]
*529 net150
*530 net151
*531 net152
*532 net153
*533 net154
*534 net155
*535 net156
*536 net157
*537 net158
*538 net159
*539 net160
*540 net161
*541 net162
*542 net163
*543 net164
*544 net165
*545 net166
*546 net167
*547 net168
*548 net169
*549 net170
*550 net171
*551 net172
*552 net173
*553 data_err_i
*554 data_gnt_i
*555 data_pmp_err_i
*556 data_rdata_i[0]
*557 data_rdata_i[10]
*558 data_rdata_i[11]
*559 data_rdata_i[12]
*560 data_rdata_i[13]
*561 data_rdata_i[14]
*562 data_rdata_i[15]
*563 data_rdata_i[16]
*564 data_rdata_i[17]
*565 data_rdata_i[18]
*566 data_rdata_i[19]
*567 data_rdata_i[1]
*568 data_rdata_i[20]
*569 data_rdata_i[21]
*570 data_rdata_i[22]
*571 data_rdata_i[23]
*572 data_rdata_i[24]
*573 data_rdata_i[25]
*574 data_rdata_i[26]
*575 data_rdata_i[27]
*576 data_rdata_i[28]
*577 data_rdata_i[29]
*578 data_rdata_i[2]
*579 data_rdata_i[30]
*580 data_rdata_i[31]
*581 data_rdata_i[3]
*582 data_rdata_i[4]
*583 data_rdata_i[5]
*584 data_rdata_i[6]
*585 data_rdata_i[7]
*586 data_rdata_i[8]
*587 data_rdata_i[9]
*588 net174
*589 data_rvalid_i
*590 data_sign_ext_q
*591 data_type_q\[0\]
*592 data_type_q\[1\]
*593 net175
*594 net176
*595 net177
*596 net178
*597 net179
*598 net180
*599 net181
*600 net182
*601 net183
*602 net184
*603 net185
*604 net186
*605 net187
*606 net188
*607 net189
*608 net190
*609 net191
*610 net192
*611 net193
*612 net194
*613 net195
*614 net196
*615 net197
*616 net198
*617 net199
*618 net200
*619 net201
*620 net202
*621 net203
*622 net204
*623 net205
*624 net206
*625 net207
*626 data_we_q
*627 handle_misaligned_q
*628 net208
*629 ls_fsm_cs\[0\]
*630 ls_fsm_cs\[1\]
*631 ls_fsm_cs\[2\]
*632 ls_fsm_ns\[0\]
*633 ls_fsm_ns\[1\]
*634 ls_fsm_ns\[2\]
*635 lsu_err_q
*636 net209
*637 net210
*638 net211
*639 net212
*640 net213
*641 net214
*642 net215
*643 net216
*644 net217
*645 net218
*646 net219
*647 net220
*648 net221
*649 net222
*650 net223
*651 net224
*652 net225
*653 net226
*654 net227
*655 net228
*656 net229
*657 net230
*658 net231
*659 net232
*660 net233
*661 net234
*662 net235
*663 net236
*664 net237
*665 net238
*666 net239
*667 net240
*668 net241
*669 net242
*670 lsu_req_i
*671 net243
*672 lsu_sign_ext_i
*673 lsu_type_i[0]
*674 lsu_type_i[1]
*675 lsu_wdata_i[0]
*676 lsu_wdata_i[10]
*677 lsu_wdata_i[11]
*678 lsu_wdata_i[12]
*679 lsu_wdata_i[13]
*680 lsu_wdata_i[14]
*681 lsu_wdata_i[15]
*682 lsu_wdata_i[16]
*683 lsu_wdata_i[17]
*684 lsu_wdata_i[18]
*685 lsu_wdata_i[19]
*686 lsu_wdata_i[1]
*687 lsu_wdata_i[20]
*688 lsu_wdata_i[21]
*689 lsu_wdata_i[22]
*690 lsu_wdata_i[23]
*691 lsu_wdata_i[24]
*692 lsu_wdata_i[25]
*693 lsu_wdata_i[26]
*694 lsu_wdata_i[27]
*695 lsu_wdata_i[28]
*696 lsu_wdata_i[29]
*697 lsu_wdata_i[2]
*698 lsu_wdata_i[30]
*699 lsu_wdata_i[31]
*700 lsu_wdata_i[3]
*701 lsu_wdata_i[4]
*702 lsu_wdata_i[5]
*703 lsu_wdata_i[6]
*704 lsu_wdata_i[7]
*705 lsu_wdata_i[8]
*706 lsu_wdata_i[9]
*707 lsu_we_i
*708 net244
*709 net245
*710 pmp_err_q
*711 rdata_offset_q\[0\]
*712 rdata_offset_q\[1\]
*713 rdata_q\[10\]
*714 rdata_q\[11\]
*715 rdata_q\[12\]
*716 rdata_q\[13\]
*717 rdata_q\[14\]
*718 rdata_q\[15\]
*719 rdata_q\[16\]
*720 rdata_q\[17\]
*721 rdata_q\[18\]
*722 rdata_q\[19\]
*723 rdata_q\[20\]
*724 rdata_q\[21\]
*725 rdata_q\[22\]
*726 rdata_q\[23\]
*727 rdata_q\[24\]
*728 rdata_q\[25\]
*729 rdata_q\[26\]
*730 rdata_q\[27\]
*731 rdata_q\[28\]
*732 rdata_q\[29\]
*733 rdata_q\[30\]
*734 rdata_q\[31\]
*735 rdata_q\[8\]
*736 rdata_q\[9\]
*737 rst_ni
*738 net246
*741 net1
*742 net2
*743 net3
*744 net4
*745 net5
*746 net6
*747 net7
*748 net8
*749 net9
*750 net10
*751 net11
*752 net12
*753 net13
*754 net14
*755 net15
*756 net16
*757 net17
*758 net18
*759 net19
*760 net20
*761 net21
*762 net22
*763 net23
*764 net24
*765 net25
*766 net26
*767 net27
*768 net28
*769 net29
*770 net30
*771 net31
*772 net32
*773 net33
*774 net34
*775 net35
*776 net36
*777 net37
*778 net38
*779 net39
*780 net40
*781 net41
*782 net42
*783 net43
*784 net44
*785 net45
*786 net46
*787 net47
*788 net48
*789 net49
*790 net50
*791 net51
*792 net52
*793 net53
*794 net54
*795 net55
*796 net56
*797 net57
*798 net58
*799 net59
*800 net60
*801 net61
*802 net62
*803 net63
*804 net64
*805 net65
*806 net66
*807 net67
*808 net68
*809 net69
*810 net70
*811 net71
*812 net72
*813 net73
*814 net74
*815 net75
*816 net76
*817 net77
*818 net78
*819 net79
*820 net80
*821 net81
*822 net82
*823 net83
*824 net84
*825 net85
*826 net86
*827 net87
*828 net88
*829 net89
*830 net90
*831 net91
*832 net92
*833 net93
*834 net94
*835 net95
*836 net96
*837 net97
*838 net98
*839 net99
*840 net100
*841 net101
*842 net102
*843 net103
*844 net104
*845 net105
*846 addr_incr_req_o
*847 addr_last_o[0]
*848 addr_last_o[10]
*849 addr_last_o[11]
*850 addr_last_o[12]
*851 addr_last_o[13]
*852 addr_last_o[14]
*853 addr_last_o[15]
*854 addr_last_o[16]
*855 addr_last_o[17]
*856 addr_last_o[18]
*857 addr_last_o[19]
*858 addr_last_o[1]
*859 addr_last_o[20]
*860 addr_last_o[21]
*861 addr_last_o[22]
*862 addr_last_o[23]
*863 addr_last_o[24]
*864 addr_last_o[25]
*865 addr_last_o[26]
*866 addr_last_o[27]
*867 addr_last_o[28]
*868 addr_last_o[29]
*869 addr_last_o[2]
*870 addr_last_o[30]
*871 addr_last_o[31]
*872 addr_last_o[3]
*873 addr_last_o[4]
*874 addr_last_o[5]
*875 addr_last_o[6]
*876 addr_last_o[7]
*877 addr_last_o[8]
*878 addr_last_o[9]
*879 busy_o
*880 data_addr_o[10]
*881 data_addr_o[11]
*882 data_addr_o[12]
*883 data_addr_o[13]
*884 data_addr_o[14]
*885 data_addr_o[15]
*886 data_addr_o[16]
*887 data_addr_o[17]
*888 data_addr_o[18]
*889 data_addr_o[19]
*890 data_addr_o[20]
*891 data_addr_o[21]
*892 data_addr_o[22]
*893 data_addr_o[23]
*894 data_addr_o[24]
*895 data_addr_o[25]
*896 data_addr_o[26]
*897 data_addr_o[27]
*898 data_addr_o[28]
*899 data_addr_o[29]
*900 data_addr_o[2]
*901 data_addr_o[30]
*902 data_addr_o[31]
*903 data_addr_o[3]
*904 data_addr_o[4]
*905 data_addr_o[5]
*906 data_addr_o[6]
*907 data_addr_o[7]
*908 data_addr_o[8]
*909 data_addr_o[9]
*910 data_be_o[0]
*911 data_be_o[1]
*912 data_be_o[2]
*913 data_be_o[3]
*914 data_req_o
*915 data_wdata_o[0]
*916 data_wdata_o[10]
*917 data_wdata_o[11]
*918 data_wdata_o[12]
*919 data_wdata_o[13]
*920 data_wdata_o[14]
*921 data_wdata_o[15]
*922 data_wdata_o[16]
*923 data_wdata_o[17]
*924 data_wdata_o[18]
*925 data_wdata_o[19]
*926 data_wdata_o[1]
*927 data_wdata_o[20]
*928 data_wdata_o[21]
*929 data_wdata_o[22]
*930 data_wdata_o[23]
*931 data_wdata_o[24]
*932 data_wdata_o[25]
*933 data_wdata_o[26]
*934 data_wdata_o[27]
*935 data_wdata_o[28]
*936 data_wdata_o[29]
*937 data_wdata_o[2]
*938 data_wdata_o[30]
*939 data_wdata_o[31]
*940 data_wdata_o[3]
*941 data_wdata_o[4]
*942 data_wdata_o[5]
*943 data_wdata_o[6]
*944 data_wdata_o[7]
*945 data_wdata_o[8]
*946 data_wdata_o[9]
*947 data_we_o
*948 load_err_o
*949 lsu_rdata_o[0]
*950 lsu_rdata_o[10]
*951 lsu_rdata_o[11]
*952 lsu_rdata_o[12]
*953 lsu_rdata_o[13]
*954 lsu_rdata_o[14]
*955 lsu_rdata_o[15]
*956 lsu_rdata_o[16]
*957 lsu_rdata_o[17]
*958 lsu_rdata_o[18]
*959 lsu_rdata_o[19]
*960 lsu_rdata_o[1]
*961 lsu_rdata_o[20]
*962 lsu_rdata_o[21]
*963 lsu_rdata_o[22]
*964 lsu_rdata_o[23]
*965 lsu_rdata_o[24]
*966 lsu_rdata_o[25]
*967 lsu_rdata_o[26]
*968 lsu_rdata_o[27]
*969 lsu_rdata_o[28]
*970 lsu_rdata_o[29]
*971 lsu_rdata_o[2]
*972 lsu_rdata_o[30]
*973 lsu_rdata_o[31]
*974 lsu_rdata_o[3]
*975 lsu_rdata_o[4]
*976 lsu_rdata_o[5]
*977 lsu_rdata_o[6]
*978 lsu_rdata_o[7]
*979 lsu_rdata_o[8]
*980 lsu_rdata_o[9]
*981 lsu_rdata_valid_o
*982 lsu_req_done_o
*983 lsu_resp_valid_o
*984 perf_load_o
*985 perf_store_o
*986 store_err_o
*987 net247
*988 net248
*989 clknet_3_0__leaf_clk_i
*990 clknet_3_1__leaf_clk_i
*991 clknet_3_2__leaf_clk_i
*992 clknet_3_3__leaf_clk_i
*993 clknet_3_4__leaf_clk_i
*994 clknet_3_5__leaf_clk_i
*995 clknet_3_6__leaf_clk_i
*996 clknet_3_7__leaf_clk_i
*997 _0449_
*998 _0450_
*999 _0451_
*1000 _0452_
*1001 _0453_
*1002 _0454_
*1003 _0455_
*1004 _0456_
*1005 _0457_
*1006 _0458_
*1007 _0459_
*1008 _0460_
*1009 _0461_
*1010 _0462_
*1011 _0463_
*1012 _0464_
*1013 _0465_
*1014 _0466_
*1015 _0467_
*1016 _0468_
*1017 _0469_
*1018 _0470_
*1019 _0471_
*1020 _0472_
*1021 _0473_
*1022 _0474_
*1023 _0475_
*1024 _0476_
*1025 _0477_
*1026 _0478_
*1027 _0479_
*1028 _0480_
*1029 _0481_
*1030 _0482_
*1031 _0483_
*1032 _0484_
*1033 _0485_
*1034 _0486_
*1035 _0487_
*1036 _0488_
*1037 _0489_
*1038 _0490_
*1039 _0491_
*1040 _0492_
*1041 _0493_
*1042 _0494_
*1043 _0495_
*1044 _0496_
*1045 _0497_
*1046 _0498_
*1047 _0499_
*1048 _0500_
*1049 _0501_
*1050 _0502_
*1051 _0503_
*1052 _0504_
*1053 _0505_
*1054 _0506_
*1055 _0507_
*1056 _0508_
*1057 _0509_
*1058 _0510_
*1059 _0511_
*1060 _0512_
*1061 _0513_
*1062 _0514_
*1063 _0515_
*1064 _0516_
*1065 _0517_
*1066 _0518_
*1067 _0519_
*1068 _0520_
*1069 _0521_
*1070 _0522_
*1071 _0523_
*1072 _0524_
*1073 _0525_
*1074 _0526_
*1075 _0527_
*1076 _0528_
*1077 _0529_
*1078 _0530_
*1079 _0531_
*1080 _0532_
*1081 _0533_
*1082 _0534_
*1083 _0535_
*1084 _0536_
*1085 _0537_
*1086 _0538_
*1087 _0539_
*1088 _0540_
*1089 _0541_
*1090 _0542_
*1091 _0543_
*1092 _0544_
*1093 _0545_
*1094 _0546_
*1095 _0547_
*1096 _0548_
*1097 _0549_
*1098 _0550_
*1099 _0551_
*1100 _0552_
*1101 _0553_
*1102 _0554_
*1103 _0555_
*1104 _0556_
*1105 _0557_
*1106 _0558_
*1107 _0559_
*1108 _0560_
*1109 _0561_
*1110 _0562_
*1111 _0563_
*1112 _0564_
*1113 _0565_
*1114 _0566_
*1115 _0567_
*1116 _0568_
*1117 _0569_
*1118 _0570_
*1119 _0571_
*1120 _0572_
*1121 _0573_
*1122 _0574_
*1123 _0575_
*1124 _0576_
*1125 _0577_
*1126 _0578_
*1127 _0579_
*1128 _0580_
*1129 _0581_
*1130 _0582_
*1131 _0583_
*1132 _0584_
*1133 _0585_
*1134 _0586_
*1135 _0587_
*1136 _0588_
*1137 _0589_
*1138 _0590_
*1139 _0591_
*1140 _0592_
*1141 _0593_
*1142 _0594_
*1143 _0595_
*1144 _0596_
*1145 _0597_
*1146 _0598_
*1147 _0599_
*1148 _0600_
*1149 _0601_
*1150 _0602_
*1151 _0603_
*1152 _0604_
*1153 _0605_
*1154 _0606_
*1155 _0607_
*1156 _0608_
*1157 _0609_
*1158 _0610_
*1159 _0611_
*1160 _0612_
*1161 _0613_
*1162 _0614_
*1163 _0615_
*1164 _0616_
*1165 _0617_
*1166 _0618_
*1167 _0619_
*1168 _0620_
*1169 _0621_
*1170 _0622_
*1171 _0623_
*1172 _0624_
*1173 _0625_
*1174 _0626_
*1175 _0627_
*1176 _0628_
*1177 _0629_
*1178 _0630_
*1179 _0631_
*1180 _0632_
*1181 _0633_
*1182 _0634_
*1183 _0635_
*1184 _0636_
*1185 _0637_
*1186 _0638_
*1187 _0639_
*1188 _0640_
*1189 _0641_
*1190 _0642_
*1191 _0643_
*1192 _0644_
*1193 _0645_
*1194 _0646_
*1195 _0647_
*1196 _0648_
*1197 _0649_
*1198 _0650_
*1199 _0651_
*1200 _0652_
*1201 _0653_
*1202 _0654_
*1203 _0655_
*1204 _0656_
*1205 _0657_
*1206 _0658_
*1207 _0659_
*1208 _0660_
*1209 _0661_
*1210 _0662_
*1211 _0663_
*1212 _0664_
*1213 _0665_
*1214 _0666_
*1215 _0667_
*1216 _0668_
*1217 _0669_
*1218 _0670_
*1219 _0671_
*1220 _0672_
*1221 _0673_
*1222 _0674_
*1223 _0675_
*1224 _0676_
*1225 _0677_
*1226 _0678_
*1227 _0679_
*1228 _0680_
*1229 _0681_
*1230 _0682_
*1231 _0683_
*1232 _0684_
*1233 _0685_
*1234 _0686_
*1235 _0687_
*1236 _0688_
*1237 _0689_
*1238 _0690_
*1239 _0691_
*1240 _0692_
*1241 _0693_
*1242 _0694_
*1243 _0695_
*1244 _0696_
*1245 _0697_
*1246 _0698_
*1247 _0699_
*1248 _0700_
*1249 _0701_
*1250 _0702_
*1251 _0703_
*1252 _0704_
*1253 _0705_
*1254 _0706_
*1255 _0707_
*1256 _0708_
*1257 _0709_
*1258 _0710_
*1259 _0711_
*1260 _0712_
*1261 _0713_
*1262 _0714_
*1263 _0715_
*1264 _0716_
*1265 _0717_
*1266 _0718_
*1267 _0719_
*1268 _0720_
*1269 _0721_
*1270 _0722_
*1271 _0723_
*1272 _0724_
*1273 _0725_
*1274 _0726_
*1275 _0727_
*1276 _0728_
*1277 _0729_
*1278 _0730_
*1279 _0731_
*1280 _0732_
*1281 _0733_
*1282 _0734_
*1283 _0735_
*1284 _0736_
*1285 _0737_
*1286 _0738_
*1287 _0739_
*1288 _0740_
*1289 _0741_
*1290 _0742_
*1291 _0743_
*1292 _0744_
*1293 _0745_
*1294 _0746_
*1295 _0747_
*1296 _0748_
*1297 _0749_
*1298 _0750_
*1299 _0751_
*1300 _0752_
*1301 _0753_
*1302 _0754_
*1303 _0755_
*1304 _0756_
*1305 _0757_
*1306 _0758_
*1307 _0759_
*1308 _0760_
*1309 _0761_
*1310 _0762_
*1311 _0763_
*1312 _0764_
*1313 _0765_
*1314 _0766_
*1315 _0767_
*1316 _0768_
*1317 _0769_
*1318 _0770_
*1319 _0771_
*1320 _0772_
*1321 _0773_
*1322 _0774_
*1323 _0775_
*1324 _0776_
*1325 _0777_
*1326 _0778_
*1327 _0779_
*1328 _0780_
*1329 _0781_
*1330 _0782_
*1331 _0783_
*1332 _0784_
*1333 _0785_
*1334 _0786_
*1335 _0787_
*1336 _0788_
*1337 _0789_
*1338 _0790_
*1339 _0791_
*1340 _0792_
*1341 _0793_
*1342 _0794_
*1343 _0795_
*1344 _0796_
*1345 _0797_
*1346 _0798_
*1347 _0799_
*1348 _0800_
*1349 _0801_
*1350 _0802_
*1351 _0803_
*1352 _0804_
*1353 _0805_
*1354 _0806_
*1355 _0807_
*1356 _0808_
*1357 _0809_
*1358 _0810_
*1359 _0811_
*1360 _0812_
*1361 _0813_
*1362 _0814_
*1363 _0815_
*1364 _0816_
*1365 _0817_
*1366 _0818_
*1367 _0819_
*1368 _0820_
*1369 _0821_
*1370 _0822_
*1371 _0823_
*1372 _0824_
*1373 _0825_
*1374 _0826_
*1375 _0827_
*1376 _0828_
*1377 _0829_
*1378 _0830_
*1379 _0831_
*1380 _0832_
*1381 _0833_
*1382 _0834_
*1383 _0835_
*1384 _0836_
*1385 _0837_
*1386 _0838_
*1387 _0839_
*1388 _0840_
*1389 _0841_
*1390 _0842_
*1391 _0843_
*1392 _0844_
*1393 _0845_
*1394 _0846_
*1395 _0847_
*1396 _0848_
*1397 _0849_
*1398 _0850_
*1399 _0851_
*1400 _0852_
*1401 _0853_
*1402 _0854_
*1403 _0855_
*1404 _0856_
*1405 _0857_
*1406 _0858_
*1407 _0859_
*1408 _0860_
*1409 _0861_
*1410 _0862_
*1411 _0863_
*1412 _0864_
*1413 _0865_
*1414 _0866_
*1415 _0867_
*1416 _0868_
*1417 _0869_
*1418 _0870_
*1419 _0871_
*1420 _0872_
*1421 _0873_
*1422 _0874_
*1423 _0875_
*1424 _0876_
*1425 _0877_
*1426 _0878_
*1427 _0879_
*1428 _0880_
*1429 _0881_
*1430 _0882_
*1431 _0883_
*1432 _0884_
*1433 _0885_
*1434 _0886_
*1435 _0887_
*1436 _0888_
*1437 _0889_
*1438 _0890_
*1439 _0891_
*1440 _0892_
*1441 _0893_
*1442 _0894_
*1443 _0895_
*1444 _0896_
*1445 _0897_
*1446 _0898_
*1447 _0899_
*1448 _0900_
*1449 _0901_
*1450 _0902_
*1451 _0903_
*1452 _0904_
*1453 _0905_
*1454 _0906_
*1455 _0907_
*1456 _0908_
*1457 _0909_
*1458 _0910_
*1459 _0911_
*1460 _0912_
*1461 _0913_
*1462 _0914_
*1463 _0915_
*1464 _0916_
*1465 _0917_
*1466 _0918_
*1467 _0919_
*1468 _0920_
*1469 _0921_
*1470 _0922_
*1471 _0923_
*1472 _0924_
*1473 _0925_
*1474 _0926_
*1475 _0927_
*1476 _0928_
*1477 _0929_
*1478 _0930_
*1479 _0931_
*1480 _0932_
*1481 _0933_
*1482 _0934_
*1483 _0935_
*1484 _0936_
*1485 _0937_
*1486 _0938_
*1487 _0939_
*1488 _0940_
*1489 _0941_
*1490 _0942_
*1491 _0943_
*1492 _0944_
*1493 _0945_
*1494 _0946_
*1495 _0947_
*1496 _0948_
*1497 _0949_
*1498 _0950_
*1499 _0951_
*1500 _0952_
*1501 _0953_
*1502 _0954_
*1503 _0955_
*1504 _0956_
*1505 _0957_
*1506 _0958_
*1507 _0959_
*1508 _0960_
*1509 _0961_
*1510 _0962_
*1511 _0963_
*1512 _0964_
*1513 _0965_
*1514 _0966_
*1515 _0967_
*1516 _0968_
*1517 _0969_
*1518 _0970_
*1519 _0971_
*1520 clkbuf_0_clk_i
*1521 _0973_
*1522 _0974_
*1523 _0975_
*1524 _0976_
*1525 _0977_
*1526 _0978_
*1527 _0979_
*1528 _0980_
*1529 _0981_
*1530 _0982_
*1531 _0983_
*1532 _0984_
*1533 _0985_
*1534 _0986_
*1535 _0987_
*1536 _0988_
*1537 _0989_
*1538 _0990_
*1539 _0991_
*1540 _0992_
*1541 _0993_
*1542 _0994_
*1543 _0995_
*1544 _0996_
*1545 _0997_
*1546 _0998_
*1547 _0999_
*1548 _1000_
*1549 _1001_
*1550 _1002_
*1551 _1003_
*1552 _1004_
*1553 _1005_
*1554 addr_last_q\[0\]\$_DFFE_PN0P_
*1555 addr_last_q\[10\]\$_DFFE_PN0P_
*1556 addr_last_q\[11\]\$_DFFE_PN0P_
*1557 addr_last_q\[12\]\$_DFFE_PN0P_
*1558 addr_last_q\[13\]\$_DFFE_PN0P_
*1559 addr_last_q\[14\]\$_DFFE_PN0P_
*1560 addr_last_q\[15\]\$_DFFE_PN0P_
*1561 addr_last_q\[16\]\$_DFFE_PN0P_
*1562 addr_last_q\[17\]\$_DFFE_PN0P_
*1563 addr_last_q\[18\]\$_DFFE_PN0P_
*1564 addr_last_q\[19\]\$_DFFE_PN0P_
*1565 addr_last_q\[1\]\$_DFFE_PN0P_
*1566 addr_last_q\[20\]\$_DFFE_PN0P_
*1567 addr_last_q\[21\]\$_DFFE_PN0P_
*1568 addr_last_q\[22\]\$_DFFE_PN0P_
*1569 addr_last_q\[23\]\$_DFFE_PN0P_
*1570 addr_last_q\[24\]\$_DFFE_PN0P_
*1571 addr_last_q\[25\]\$_DFFE_PN0P_
*1572 addr_last_q\[26\]\$_DFFE_PN0P_
*1573 addr_last_q\[27\]\$_DFFE_PN0P_
*1574 addr_last_q\[28\]\$_DFFE_PN0P_
*1575 addr_last_q\[29\]\$_DFFE_PN0P_
*1576 addr_last_q\[2\]\$_DFFE_PN0P_
*1577 addr_last_q\[30\]\$_DFFE_PN0P_
*1578 addr_last_q\[31\]\$_DFFE_PN0P_
*1579 addr_last_q\[3\]\$_DFFE_PN0P_
*1580 addr_last_q\[4\]\$_DFFE_PN0P_
*1581 addr_last_q\[5\]\$_DFFE_PN0P_
*1582 addr_last_q\[6\]\$_DFFE_PN0P_
*1583 addr_last_q\[7\]\$_DFFE_PN0P_
*1584 addr_last_q\[8\]\$_DFFE_PN0P_
*1585 addr_last_q\[9\]\$_DFFE_PN0P_
*1586 data_sign_ext_q\$_DFFE_PN0P_
*1587 data_type_q\[0\]\$_DFFE_PN0P_
*1588 data_type_q\[1\]\$_DFFE_PN0P_
*1589 data_we_q\$_DFFE_PN0P_
*1590 handle_misaligned_q\$_DFFE_PN0P_
*1591 ls_fsm_cs\[0\]\$_DFF_PN0_
*1592 ls_fsm_cs\[1\]\$_DFF_PN0_
*1593 ls_fsm_cs\[2\]\$_DFF_PN0_
*1594 lsu_err_q\$_DFFE_PN0P_
*1595 pmp_err_q\$_DFFE_PN0P_
*1596 rdata_offset_q\[0\]\$_DFFE_PN0P_
*1597 rdata_offset_q\[1\]\$_DFFE_PN0P_
*1598 rdata_q\[0\]\$_DFFE_PN0P_
*1599 rdata_q\[10\]\$_DFFE_PN0P_
*1600 rdata_q\[11\]\$_DFFE_PN0P_
*1601 rdata_q\[12\]\$_DFFE_PN0P_
*1602 rdata_q\[13\]\$_DFFE_PN0P_
*1603 rdata_q\[14\]\$_DFFE_PN0P_
*1604 rdata_q\[15\]\$_DFFE_PN0P_
*1605 rdata_q\[16\]\$_DFFE_PN0P_
*1606 rdata_q\[17\]\$_DFFE_PN0P_
*1607 rdata_q\[18\]\$_DFFE_PN0P_
*1608 rdata_q\[19\]\$_DFFE_PN0P_
*1609 rdata_q\[1\]\$_DFFE_PN0P_
*1610 rdata_q\[20\]\$_DFFE_PN0P_
*1611 rdata_q\[21\]\$_DFFE_PN0P_
*1612 rdata_q\[22\]\$_DFFE_PN0P_
*1613 rdata_q\[23\]\$_DFFE_PN0P_
*1614 rdata_q\[2\]\$_DFFE_PN0P_
*1615 rdata_q\[3\]\$_DFFE_PN0P_
*1616 rdata_q\[4\]\$_DFFE_PN0P_
*1617 rdata_q\[5\]\$_DFFE_PN0P_
*1618 rdata_q\[6\]\$_DFFE_PN0P_
*1619 rdata_q\[7\]\$_DFFE_PN0P_
*1620 rdata_q\[8\]\$_DFFE_PN0P_
*1621 rdata_q\[9\]\$_DFFE_PN0P_
*1622 TAP_TAPCELL_ROW_0_0
*1623 TAP_TAPCELL_ROW_0_1
*1624 TAP_TAPCELL_ROW_0_2
*1625 TAP_TAPCELL_ROW_0_3
*1626 TAP_TAPCELL_ROW_0_4
*1627 TAP_TAPCELL_ROW_0_5
*1628 TAP_TAPCELL_ROW_0_6
*1629 TAP_TAPCELL_ROW_0_7
*1630 TAP_TAPCELL_ROW_0_8
*1631 TAP_TAPCELL_ROW_0_9
*1632 TAP_TAPCELL_ROW_1_10
*1633 TAP_TAPCELL_ROW_1_11
*1634 TAP_TAPCELL_ROW_1_12
*1635 TAP_TAPCELL_ROW_1_13
*1636 TAP_TAPCELL_ROW_1_14
*1637 TAP_TAPCELL_ROW_2_15
*1638 TAP_TAPCELL_ROW_2_16
*1639 TAP_TAPCELL_ROW_2_17
*1640 TAP_TAPCELL_ROW_2_18
*1641 TAP_TAPCELL_ROW_2_19
*1642 TAP_TAPCELL_ROW_3_20
*1643 TAP_TAPCELL_ROW_3_21
*1644 TAP_TAPCELL_ROW_3_22
*1645 TAP_TAPCELL_ROW_3_23
*1646 TAP_TAPCELL_ROW_3_24
*1647 TAP_TAPCELL_ROW_4_25
*1648 TAP_TAPCELL_ROW_4_26
*1649 TAP_TAPCELL_ROW_4_27
*1650 TAP_TAPCELL_ROW_4_28
*1651 TAP_TAPCELL_ROW_4_29
*1652 TAP_TAPCELL_ROW_5_30
*1653 TAP_TAPCELL_ROW_5_31
*1654 TAP_TAPCELL_ROW_5_32
*1655 TAP_TAPCELL_ROW_5_33
*1656 TAP_TAPCELL_ROW_5_34
*1657 TAP_TAPCELL_ROW_6_35
*1658 TAP_TAPCELL_ROW_6_36
*1659 TAP_TAPCELL_ROW_6_37
*1660 TAP_TAPCELL_ROW_6_38
*1661 TAP_TAPCELL_ROW_6_39
*1662 TAP_TAPCELL_ROW_7_40
*1663 TAP_TAPCELL_ROW_7_41
*1664 TAP_TAPCELL_ROW_7_42
*1665 TAP_TAPCELL_ROW_7_43
*1666 TAP_TAPCELL_ROW_7_44
*1667 TAP_TAPCELL_ROW_8_45
*1668 TAP_TAPCELL_ROW_8_46
*1669 TAP_TAPCELL_ROW_8_47
*1670 TAP_TAPCELL_ROW_8_48
*1671 TAP_TAPCELL_ROW_8_49
*1672 TAP_TAPCELL_ROW_9_50
*1673 TAP_TAPCELL_ROW_9_51
*1674 TAP_TAPCELL_ROW_9_52
*1675 TAP_TAPCELL_ROW_9_53
*1676 TAP_TAPCELL_ROW_9_54
*1677 TAP_TAPCELL_ROW_10_55
*1678 TAP_TAPCELL_ROW_10_56
*1679 TAP_TAPCELL_ROW_10_57
*1680 TAP_TAPCELL_ROW_10_58
*1681 TAP_TAPCELL_ROW_10_59
*1682 TAP_TAPCELL_ROW_11_60
*1683 TAP_TAPCELL_ROW_11_61
*1684 TAP_TAPCELL_ROW_11_62
*1685 TAP_TAPCELL_ROW_11_63
*1686 TAP_TAPCELL_ROW_11_64
*1687 TAP_TAPCELL_ROW_12_65
*1688 TAP_TAPCELL_ROW_12_66
*1689 TAP_TAPCELL_ROW_12_67
*1690 TAP_TAPCELL_ROW_12_68
*1691 TAP_TAPCELL_ROW_12_69
*1692 TAP_TAPCELL_ROW_13_70
*1693 TAP_TAPCELL_ROW_13_71
*1694 TAP_TAPCELL_ROW_13_72
*1695 TAP_TAPCELL_ROW_13_73
*1696 TAP_TAPCELL_ROW_13_74
*1697 TAP_TAPCELL_ROW_14_75
*1698 TAP_TAPCELL_ROW_14_76
*1699 TAP_TAPCELL_ROW_14_77
*1700 TAP_TAPCELL_ROW_14_78
*1701 TAP_TAPCELL_ROW_14_79
*1702 TAP_TAPCELL_ROW_15_80
*1703 TAP_TAPCELL_ROW_15_81
*1704 TAP_TAPCELL_ROW_15_82
*1705 TAP_TAPCELL_ROW_15_83
*1706 TAP_TAPCELL_ROW_15_84
*1707 TAP_TAPCELL_ROW_16_85
*1708 TAP_TAPCELL_ROW_16_86
*1709 TAP_TAPCELL_ROW_16_87
*1710 TAP_TAPCELL_ROW_16_88
*1711 TAP_TAPCELL_ROW_16_89
*1712 TAP_TAPCELL_ROW_17_90
*1713 TAP_TAPCELL_ROW_17_91
*1714 TAP_TAPCELL_ROW_17_92
*1715 TAP_TAPCELL_ROW_17_93
*1716 TAP_TAPCELL_ROW_17_94
*1717 TAP_TAPCELL_ROW_18_95
*1718 TAP_TAPCELL_ROW_18_96
*1719 TAP_TAPCELL_ROW_18_97
*1720 TAP_TAPCELL_ROW_18_98
*1721 TAP_TAPCELL_ROW_18_99
*1722 TAP_TAPCELL_ROW_19_100
*1723 TAP_TAPCELL_ROW_19_101
*1724 TAP_TAPCELL_ROW_19_102
*1725 TAP_TAPCELL_ROW_19_103
*1726 TAP_TAPCELL_ROW_19_104
*1727 TAP_TAPCELL_ROW_20_105
*1728 TAP_TAPCELL_ROW_20_106
*1729 TAP_TAPCELL_ROW_20_107
*1730 TAP_TAPCELL_ROW_20_108
*1731 TAP_TAPCELL_ROW_20_109
*1732 TAP_TAPCELL_ROW_21_110
*1733 TAP_TAPCELL_ROW_21_111
*1734 TAP_TAPCELL_ROW_21_112
*1735 TAP_TAPCELL_ROW_21_113
*1736 TAP_TAPCELL_ROW_21_114
*1737 TAP_TAPCELL_ROW_22_115
*1738 TAP_TAPCELL_ROW_22_116
*1739 TAP_TAPCELL_ROW_22_117
*1740 TAP_TAPCELL_ROW_22_118
*1741 TAP_TAPCELL_ROW_22_119
*1742 TAP_TAPCELL_ROW_23_120
*1743 TAP_TAPCELL_ROW_23_121
*1744 TAP_TAPCELL_ROW_23_122
*1745 TAP_TAPCELL_ROW_23_123
*1746 TAP_TAPCELL_ROW_23_124
*1747 TAP_TAPCELL_ROW_24_125
*1748 TAP_TAPCELL_ROW_24_126
*1749 TAP_TAPCELL_ROW_24_127
*1750 TAP_TAPCELL_ROW_24_128
*1751 TAP_TAPCELL_ROW_24_129
*1752 TAP_TAPCELL_ROW_25_130
*1753 TAP_TAPCELL_ROW_25_131
*1754 TAP_TAPCELL_ROW_25_132
*1755 TAP_TAPCELL_ROW_25_133
*1756 TAP_TAPCELL_ROW_25_134
*1757 TAP_TAPCELL_ROW_26_135
*1758 TAP_TAPCELL_ROW_26_136
*1759 TAP_TAPCELL_ROW_26_137
*1760 TAP_TAPCELL_ROW_26_138
*1761 TAP_TAPCELL_ROW_26_139
*1762 TAP_TAPCELL_ROW_27_140
*1763 TAP_TAPCELL_ROW_27_141
*1764 TAP_TAPCELL_ROW_27_142
*1765 TAP_TAPCELL_ROW_27_143
*1766 TAP_TAPCELL_ROW_27_144
*1767 TAP_TAPCELL_ROW_28_145
*1768 TAP_TAPCELL_ROW_28_146
*1769 TAP_TAPCELL_ROW_28_147
*1770 TAP_TAPCELL_ROW_28_148
*1771 TAP_TAPCELL_ROW_28_149
*1772 TAP_TAPCELL_ROW_29_150
*1773 TAP_TAPCELL_ROW_29_151
*1774 TAP_TAPCELL_ROW_29_152
*1775 TAP_TAPCELL_ROW_29_153
*1776 TAP_TAPCELL_ROW_29_154
*1777 TAP_TAPCELL_ROW_30_155
*1778 TAP_TAPCELL_ROW_30_156
*1779 TAP_TAPCELL_ROW_30_157
*1780 TAP_TAPCELL_ROW_30_158
*1781 TAP_TAPCELL_ROW_30_159
*1782 TAP_TAPCELL_ROW_31_160
*1783 TAP_TAPCELL_ROW_31_161
*1784 TAP_TAPCELL_ROW_31_162
*1785 TAP_TAPCELL_ROW_31_163
*1786 TAP_TAPCELL_ROW_31_164
*1787 TAP_TAPCELL_ROW_32_165
*1788 TAP_TAPCELL_ROW_32_166
*1789 TAP_TAPCELL_ROW_32_167
*1790 TAP_TAPCELL_ROW_32_168
*1791 TAP_TAPCELL_ROW_32_169
*1792 TAP_TAPCELL_ROW_33_170
*1793 TAP_TAPCELL_ROW_33_171
*1794 TAP_TAPCELL_ROW_33_172
*1795 TAP_TAPCELL_ROW_33_173
*1796 TAP_TAPCELL_ROW_33_174
*1797 TAP_TAPCELL_ROW_34_175
*1798 TAP_TAPCELL_ROW_34_176
*1799 TAP_TAPCELL_ROW_34_177
*1800 TAP_TAPCELL_ROW_34_178
*1801 TAP_TAPCELL_ROW_34_179
*1802 TAP_TAPCELL_ROW_35_180
*1803 TAP_TAPCELL_ROW_35_181
*1804 TAP_TAPCELL_ROW_35_182
*1805 TAP_TAPCELL_ROW_35_183
*1806 TAP_TAPCELL_ROW_35_184
*1807 TAP_TAPCELL_ROW_36_185
*1808 TAP_TAPCELL_ROW_36_186
*1809 TAP_TAPCELL_ROW_36_187
*1810 TAP_TAPCELL_ROW_36_188
*1811 TAP_TAPCELL_ROW_36_189
*1812 TAP_TAPCELL_ROW_37_190
*1813 TAP_TAPCELL_ROW_37_191
*1814 TAP_TAPCELL_ROW_37_192
*1815 TAP_TAPCELL_ROW_37_193
*1816 TAP_TAPCELL_ROW_37_194
*1817 TAP_TAPCELL_ROW_38_195
*1818 TAP_TAPCELL_ROW_38_196
*1819 TAP_TAPCELL_ROW_38_197