*SPEF "ieee 1481-1999"
*DESIGN "ibex_if_stage"
*DATE "21:57:39 Monday March 24, 2025"
*VENDOR "The OpenROAD Project"
*PROGRAM "OpenROAD"
*VERSION "v2.0-19351-g6c51970ad"
*DESIGN_FLOW "NAME_SCOPE LOCAL" "PIN_CAP NONE"
*DIVIDER /
*DELIMITER :
*BUS_DELIMITER []
*T_UNIT 1 NS
*C_UNIT 1 PF
*R_UNIT 1 OHM
*L_UNIT 1 HENRY

*NAME_MAP
*1 _0000_
*2 _0001_
*3 _0002_
*4 _0003_
*5 _0004_
*6 _0005_
*7 _0006_
*8 _0007_
*9 _0008_
*10 _0009_
*11 _0010_
*12 _0011_
*13 _0012_
*14 _0013_
*15 _0014_
*16 _0015_
*17 _0016_
*18 _0017_
*19 _0018_
*20 _0019_
*21 _0020_
*22 _0021_
*23 _0022_
*24 _0023_
*25 _0024_
*26 _0025_
*27 _0026_
*28 _0027_
*29 _0028_
*30 _0029_
*31 _0030_
*32 _0031_
*33 _0032_
*34 _0033_
*35 _0034_
*36 _0035_
*37 _0036_
*38 _0037_
*39 _0038_
*40 _0039_
*41 _0040_
*42 _0041_
*43 _0042_
*44 _0043_
*45 _0044_
*46 _0045_
*47 _0046_
*48 _0047_
*49 _0048_
*50 _0049_
*51 _0050_
*52 _0051_
*53 _0052_
*54 _0053_
*55 _0054_
*56 _0055_
*57 _0056_
*58 _0057_
*59 _0058_
*60 _0059_
*61 _0060_
*62 _0061_
*63 _0062_
*64 _0063_
*65 _0064_
*66 _0065_
*67 _0066_
*68 _0067_
*69 _0068_
*70 _0069_
*71 _0070_
*72 _0071_
*73 _0072_
*74 _0073_
*75 _0074_
*76 _0075_
*77 _0076_
*78 _0077_
*79 _0078_
*80 _0079_
*81 _0080_
*82 _0081_
*83 _0082_
*84 _0083_
*85 _0084_
*86 _0085_
*87 _0086_
*88 _0087_
*89 _0088_
*90 _0089_
*91 _0090_
*92 _0091_
*93 _0092_
*94 _0093_
*95 _0094_
*96 _0095_
*97 _0096_
*98 _0097_
*99 _0098_
*100 _0099_
*101 _0100_
*102 _0101_
*103 _0102_
*104 _0103_
*105 _0104_
*106 _0105_
*107 _0106_
*108 _0107_
*109 _0108_
*110 _0109_
*111 _0110_
*112 _0111_
*113 _0112_
*114 _0113_
*115 _0114_
*116 _0115_
*117 _0116_
*118 _0117_
*119 _0118_
*120 _0119_
*121 _0120_
*122 _0121_
*123 _0122_
*124 _0123_
*125 _0124_
*126 _0125_
*127 _0126_
*128 _0127_
*129 _0128_
*130 _0129_
*131 _0130_
*132 _0131_
*133 _0132_
*134 _0133_
*135 _0134_
*136 _0135_
*137 _0136_
*138 _0137_
*139 _0138_
*140 _0139_
*141 _0140_
*142 _0141_
*143 _0142_
*144 _0143_
*145 _0144_
*146 _0145_
*147 _0146_
*148 _0147_
*149 _0148_
*150 _0149_
*151 _0150_
*152 _0151_
*153 _0152_
*154 _0153_
*155 _0154_
*156 _0155_
*157 _0156_
*158 _0157_
*159 _0158_
*160 _0159_
*161 _0160_
*162 _0161_
*163 _0162_
*164 _0163_
*165 _0164_
*166 _0165_
*167 _0166_
*168 _0167_
*169 _0168_
*170 _0169_
*171 _0170_
*172 _0171_
*173 _0172_
*174 _0173_
*175 _0174_
*176 _0175_
*177 _0176_
*178 _0177_
*179 _0178_
*180 _0179_
*181 _0180_
*182 _0181_
*183 _0182_
*184 _0183_
*185 _0184_
*186 _0185_
*187 _0186_
*188 _0187_
*189 _0188_
*190 _0189_
*191 _0190_
*192 _0191_
*193 _0192_
*194 _0193_
*195 _0194_
*196 _0195_
*197 _0196_
*198 _0197_
*199 _0198_
*200 _0199_
*201 _0200_
*202 _0201_
*203 _0202_
*204 _0203_
*205 _0204_
*206 _0205_
*207 _0206_
*208 _0207_
*209 _0208_
*210 _0209_
*211 _0210_
*212 _0211_
*213 _0212_
*214 _0213_
*215 _0214_
*216 _0215_
*217 _0216_
*218 _0217_
*219 _0218_
*220 _0219_
*221 _0220_
*222 _0221_
*223 _0222_
*224 _0223_
*225 _0224_
*226 _0225_
*227 _0226_
*228 _0227_
*229 _0228_
*230 _0229_
*231 _0230_
*232 _0231_
*233 _0232_
*234 _0233_
*235 _0234_
*236 _0235_
*237 _0236_
*238 _0237_
*239 _0238_
*240 _0239_
*241 _0240_
*242 _0241_
*243 _0242_
*244 _0243_
*245 _0244_
*246 _0245_
*247 _0246_
*248 _0247_
*249 _0248_
*250 _0249_
*251 _0250_
*252 _0251_
*253 _0252_
*254 _0253_
*255 _0254_
*256 _0255_
*257 _0256_
*258 _0257_
*259 _0258_
*260 _0259_
*261 _0260_
*262 _0261_
*263 _0262_
*264 _0263_
*265 _0264_
*266 _0265_
*267 _0266_
*268 _0267_
*269 _0268_
*270 _0269_
*271 _0270_
*272 _0271_
*273 _0272_
*274 _0273_
*275 _0274_
*276 _0275_
*277 _0276_
*278 _0277_
*279 _0278_
*280 _0279_
*281 _0280_
*282 _0281_
*283 _0282_
*284 _0283_
*285 _0284_
*286 _0285_
*287 _0286_
*288 _0287_
*289 _0288_
*290 _0289_
*291 _0290_
*292 _0291_
*293 _0292_
*294 _0293_
*295 _0294_
*296 _0295_
*297 _0296_
*298 _0297_
*299 _0298_
*300 _0299_
*301 _0300_
*302 _0301_
*303 _0302_
*304 _0303_
*305 _0304_
*306 _0305_
*307 _0306_
*308 _0307_
*309 _0308_
*310 _0309_
*311 _0310_
*312 _0311_
*313 _0312_
*314 _0313_
*315 _0314_
*316 _0315_
*317 _0316_
*318 _0317_
*319 _0318_
*320 _0319_
*321 _0320_
*322 _0321_
*323 _0322_
*324 _0323_
*325 _0324_
*326 _0325_
*327 _0326_
*328 _0327_
*329 _0328_
*330 _0329_
*331 _0330_
*332 _0331_
*333 _0332_
*334 _0333_
*335 _0334_
*336 _0335_
*337 _0336_
*338 _0337_
*339 _0338_
*340 _0339_
*341 _0340_
*342 _0341_
*343 _0342_
*344 _0343_
*345 _0344_
*346 _0345_
*347 _0346_
*348 _0347_
*349 _0348_
*350 _0349_
*351 _0350_
*352 _0351_
*353 _0352_
*354 _0353_
*355 _0354_
*356 _0355_
*357 _0356_
*358 _0357_
*359 _0358_
*360 _0359_
*361 _0360_
*362 _0361_
*363 _0362_
*364 _0363_
*365 _0364_
*366 _0365_
*367 _0366_
*368 _0367_
*369 _0368_
*370 _0369_
*371 _0370_
*372 _0371_
*373 _0372_
*374 _0373_
*375 _0374_
*376 _0375_
*377 _0376_
*378 _0377_
*379 _0378_
*380 _0379_
*381 _0380_
*382 _0381_
*383 _0382_
*384 _0383_
*385 _0384_
*386 _0385_
*387 _0386_
*388 _0387_
*389 _0388_
*390 _0389_
*391 _0390_
*392 _0391_
*393 _0392_
*394 _0393_
*395 _0394_
*396 _0395_
*397 _0396_
*398 _0397_
*399 _0398_
*400 _0399_
*401 _0400_
*402 _0401_
*403 _0402_
*404 _0403_
*405 _0404_
*406 _0405_
*407 _0406_
*408 _0407_
*409 _0408_
*410 _0409_
*411 _0410_
*412 _0411_
*413 _0412_
*414 _0413_
*415 _0414_
*416 _0415_
*417 _0416_
*418 _0417_
*419 _0418_
*420 _0419_
*421 _0420_
*422 _0421_
*423 _0422_
*424 _0423_
*425 _0424_
*426 _0425_
*427 _0426_
*428 _0427_
*429 _0428_
*430 _0429_
*431 _0430_
*432 _0431_
*433 _0432_
*434 _0433_
*435 _0434_
*436 _0435_
*437 _0436_
*438 _0437_
*439 _0438_
*440 _0439_
*441 _0440_
*442 _0441_
*443 _0442_
*444 _0443_
*445 _0444_
*446 _0445_
*447 _0446_
*448 _0447_
*449 _0448_
*450 _0449_
*451 _0450_
*452 _0451_
*453 _0452_
*454 _0453_
*455 _0454_
*456 _0455_
*457 _0456_
*458 _0457_
*459 _0458_
*460 _0459_
*461 _0460_
*462 _0461_
*463 _0462_
*464 _0463_
*465 _0464_
*466 _0465_
*467 _0466_
*468 _0467_
*469 _0468_
*470 _0469_
*471 _0470_
*472 _0471_
*473 _0472_
*474 _0473_
*475 _0474_
*476 _0475_
*477 _0476_
*478 _0477_
*479 _0478_
*480 _0479_
*481 _0480_
*482 _0481_
*483 _0482_
*484 _0483_
*485 _0484_
*486 _0485_
*487 _0486_
*488 _0487_
*489 _0488_
*490 _0489_
*491 _0490_
*492 _0491_
*493 _0492_
*494 _0493_
*495 _0494_
*496 _0495_
*497 _0496_
*498 _0497_
*499 _0498_
*500 _0499_
*501 _0500_
*502 _0501_
*503 _0502_
*504 _0503_
*505 _0504_
*506 _0505_
*507 _0506_
*508 _0507_
*509 _0508_
*510 _0509_
*511 _0510_
*512 _0511_
*513 _0512_
*514 _0513_
*515 _0514_
*516 _0515_
*517 _0516_
*518 _0517_
*519 _0518_
*520 _0519_
*521 _0520_
*522 _0521_
*523 _0522_
*524 _0523_
*525 _0524_
*526 _0525_
*527 _0526_
*528 _0527_
*529 _0528_
*530 _0529_
*531 _0530_
*532 _0531_
*533 _0532_
*534 _0533_
*535 _0534_
*536 _0535_
*537 _0536_
*538 _0537_
*539 _0538_
*540 _0539_
*541 _0540_
*542 _0541_
*543 _0542_
*544 _0543_
*545 _0544_
*546 _0545_
*547 _0546_
*548 _0547_
*549 _0548_
*550 _0549_
*551 _0550_
*552 _0551_
*553 _0552_
*554 _0553_
*555 _0554_
*556 _0555_
*557 _0556_
*558 _0557_
*559 _0558_
*560 _0559_
*561 _0560_
*562 _0561_
*563 _0562_
*564 _0563_
*565 _0564_
*566 _0565_
*567 _0566_
*568 _0567_
*569 _0568_
*570 _0569_
*571 _0570_
*572 _0571_
*573 _0572_
*574 _0573_
*575 _0574_
*576 _0575_
*577 _0576_
*578 _0577_
*579 _0578_
*580 _0579_
*581 _0580_
*582 _0581_
*583 _0582_
*584 _0583_
*585 _0584_
*586 _0585_
*587 _0586_
*588 _0587_
*589 _0588_
*590 _0589_
*591 _0590_
*592 _0591_
*593 _0592_
*594 _0593_
*595 _0594_
*596 _0595_
*597 _0596_
*598 _0597_
*599 _0598_
*600 _0599_
*601 _0600_
*602 _0601_
*603 _0602_
*604 _0603_
*605 _0604_
*606 _0605_
*607 _0606_
*608 _0607_
*609 _0608_
*610 _0609_
*611 _0610_
*612 _0611_
*613 _0612_
*614 _0613_
*615 _0614_
*616 _0615_
*617 _0616_
*618 _0617_
*619 _0618_
*620 _0619_
*621 _0620_
*622 _0621_
*623 _0622_
*624 _0623_
*625 _0624_
*626 _0625_
*627 _0626_
*628 _0627_
*629 _0628_
*630 _0629_
*631 _0630_
*632 _0631_
*633 _0632_
*634 _0633_
*635 _0634_
*636 _0635_
*637 _0636_
*638 _0637_
*639 _0638_
*640 _0639_
*641 _0640_
*642 _0641_
*643 _0642_
*644 _0643_
*645 _0644_
*646 _0645_
*647 _0646_
*648 _0647_
*649 _0648_
*650 _0649_
*651 _0650_
*652 _0651_
*653 _0652_
*654 _0653_
*655 _0654_
*656 _0655_
*657 _0656_
*658 _0657_
*659 _0658_
*660 _0659_
*661 _0660_
*662 _0661_
*663 _0662_
*664 _0663_
*665 _0664_
*666 _0665_
*667 _0666_
*668 _0667_
*669 _0668_
*670 _0669_
*671 _0670_
*672 _0671_
*673 _0672_
*674 _0673_
*675 _0674_
*676 _0675_
*677 _0676_
*678 _0677_
*679 _0678_
*680 _0679_
*681 _0680_
*682 _0681_
*683 _0682_
*684 _0683_
*685 _0684_
*686 _0685_
*687 _0686_
*688 _0687_
*689 _0688_
*690 _0689_
*691 _0690_
*692 _0691_
*693 _0692_
*694 _0693_
*695 _0694_
*696 _0695_
*697 _0696_
*698 _0697_
*699 _0698_
*700 _0699_
*701 _0700_
*702 _0701_
*703 _0702_
*704 _0703_
*705 _0704_
*706 _0705_
*707 _0706_
*708 _0707_
*709 _0708_
*710 _0709_
*711 _0710_
*712 _0711_
*713 _0712_
*714 _0713_
*715 _0714_
*716 _0715_
*717 _0716_
*718 _0717_
*719 _0718_
*720 _0719_
*721 _0720_
*722 _0721_
*723 _0722_
*724 _0723_
*725 _0724_
*726 _0725_
*727 _0726_
*728 _0727_
*729 _0728_
*730 _0729_
*731 _0730_
*732 _0731_
*733 _0732_
*734 _0733_
*735 _0734_
*736 _0735_
*737 _0736_
*738 _0737_
*739 _0738_
*740 _0739_
*741 _0740_
*742 _0741_
*743 _0742_
*744 _0743_
*745 _0744_
*746 _0745_
*747 _0746_
*748 _0747_
*749 _0748_
*750 _0749_
*751 _0750_
*752 _0751_
*753 _0752_
*754 _0753_
*755 _0754_
*756 _0755_
*757 _0756_
*758 _0757_
*759 _0758_
*760 _0759_
*761 _0760_
*762 _0761_
*763 _0762_
*764 _0763_
*765 _0764_
*766 _0765_
*767 _0766_
*768 _0767_
*769 _0768_
*770 _0769_
*771 _0770_
*772 _0771_
*773 _0772_
*774 _0773_
*775 _0774_
*776 _0775_
*777 _0776_
*778 _0777_
*779 _0778_
*780 _0779_
*781 _0780_
*782 _0781_
*783 _0782_
*784 _0783_
*785 _0784_
*786 _0785_
*787 _0786_
*788 _0787_
*789 _0788_
*790 _0789_
*791 _0790_
*792 _0791_
*793 _0792_
*794 _0793_
*795 _0794_
*796 _0795_
*797 _0796_
*798 _0797_
*799 _0798_
*800 _0799_
*801 _0800_
*802 _0801_
*803 _0802_
*804 _0803_
*805 _0804_
*806 _0805_
*807 _0806_
*808 _0807_
*809 _0808_
*810 _0809_
*811 _0810_
*812 _0811_
*813 _0812_
*814 _0813_
*815 _0814_
*816 _0815_
*817 _0816_
*818 _0817_
*819 _0818_
*820 _0819_
*821 _0820_
*822 _0821_
*823 _0822_
*824 _0823_
*825 _0824_
*826 _0825_
*827 _0826_
*828 _0827_
*829 _0828_
*830 _0829_
*831 _0830_
*832 _0831_
*833 _0832_
*834 _0833_
*835 _0834_
*836 _0835_
*837 _0836_
*838 _0837_
*839 _0838_
*840 _0839_
*841 _0840_
*842 _0841_
*843 _0842_
*844 _0843_
*845 _0844_
*846 _0845_
*847 _0846_
*848 _0847_
*849 _0848_
*850 _0849_
*851 _0850_
*852 _0851_
*853 _0852_
*854 _0853_
*855 _0854_
*856 _0855_
*857 _0856_
*858 _0857_
*859 _0858_
*860 _0859_
*861 _0860_
*862 _0861_
*863 _0862_
*864 _0863_
*865 _0864_
*866 _0865_
*867 _0866_
*868 _0867_
*869 _0868_
*870 _0869_
*871 _0870_
*872 _0871_
*873 _0872_
*874 _0873_
*875 _0874_
*876 _0875_
*877 _0876_
*878 _0877_
*879 _0878_
*880 _0879_
*881 _0880_
*882 _0881_
*883 _0882_
*884 _0883_
*885 _0884_
*886 _0885_
*887 _0886_
*888 _0887_
*889 _0888_
*890 _0889_
*891 _0890_
*892 _0891_
*893 _0892_
*894 _0893_
*895 _0894_
*896 _0895_
*897 _0896_
*898 _0897_
*899 _0898_
*900 _0899_
*901 _0900_
*902 _0901_
*903 _0902_
*904 _0903_
*905 _0904_
*906 _0905_
*907 _0906_
*908 _0907_
*909 _0908_
*910 _0909_
*911 _0910_
*912 _0911_
*913 _0912_
*914 _0913_
*915 _0914_
*916 _0915_
*917 _0916_
*918 _0917_
*919 _0918_
*920 _0919_
*921 _0920_
*922 _0921_
*923 _0922_
*924 _0923_
*925 _0924_
*926 _0925_
*927 _0926_
*928 _0927_
*929 _0928_
*930 _0929_
*931 _0930_
*932 _0931_
*933 _0932_
*934 _0933_
*935 _0934_
*936 _0935_
*937 _0936_
*938 _0937_
*939 _0938_
*940 _0939_
*941 _0940_
*942 _0941_
*943 _0942_
*944 _0943_
*945 _0944_
*946 _0945_
*947 _0946_
*948 _0947_
*949 _0948_
*950 _0949_
*951 _0950_
*952 _0951_
*953 _0952_
*954 _0953_
*955 _0954_
*956 _0955_
*957 _0956_
*958 _0957_
*959 _0958_
*960 _0959_
*961 _0960_
*962 _0961_
*963 _0962_
*964 _0963_
*965 _0964_
*966 _0965_
*967 _0966_
*968 _0967_
*969 _0968_
*970 _0969_
*971 _0970_
*972 _0971_
*973 _0972_
*974 _0973_
*975 _0974_
*976 _0975_
*977 _0976_
*978 _0977_
*979 _0978_
*980 _0979_
*981 _0980_
*982 _0981_
*983 _0982_
*984 _0983_
*985 _0984_
*986 _0985_
*987 _0986_
*988 _0987_
*989 _0988_
*990 _0989_
*991 _0990_
*992 _0991_
*993 _0992_
*994 _0993_
*995 _0994_
*996 _0995_
*997 _0996_
*998 _0997_
*999 _0998_
*1000 _0999_
*1001 _1000_
*1002 _1001_
*1003 _1002_
*1004 _1003_
*1005 _1004_
*1006 _1005_
*1007 _1006_
*1008 _1007_
*1009 _1008_
*1010 _1009_
*1011 _1010_
*1012 _1011_
*1013 _1012_
*1014 _1013_
*1015 _1014_
*1016 _1015_
*1017 _1016_
*1018 _1017_
*1019 _1018_
*1020 _1019_
*1021 _1020_
*1022 _1021_
*1023 _1022_
*1024 _1023_
*1025 _1024_
*1026 _1025_
*1027 _1026_
*1028 _1027_
*1029 _1028_
*1030 _1029_
*1031 _1030_
*1032 _1031_
*1033 _1032_
*1034 _1033_
*1035 _1034_
*1036 _1035_
*1037 _1036_
*1038 _1037_
*1039 _1038_
*1040 _1039_
*1041 _1040_
*1042 _1041_
*1043 _1042_
*1044 _1043_
*1045 _1044_
*1046 _1045_
*1047 _1046_
*1048 _1047_
*1049 _1048_
*1050 _1049_
*1051 _1050_
*1052 _1051_
*1053 _1052_
*1054 _1053_
*1055 _1054_
*1056 _1055_
*1057 _1056_
*1058 _1057_
*1059 _1058_
*1060 _1059_
*1061 _1060_
*1062 _1061_
*1063 _1062_
*1064 _1063_
*1065 _1064_
*1066 _1065_
*1067 _1066_
*1068 _1067_
*1069 _1068_
*1070 clknet_leaf_0_clk_i
*1071 boot_addr_i[0]
*1072 boot_addr_i[10]
*1073 boot_addr_i[11]
*1074 boot_addr_i[12]
*1075 boot_addr_i[13]
*1076 boot_addr_i[14]
*1077 boot_addr_i[15]
*1078 boot_addr_i[16]
*1079 boot_addr_i[17]
*1080 boot_addr_i[18]
*1081 boot_addr_i[19]
*1082 boot_addr_i[1]
*1083 boot_addr_i[20]
*1084 boot_addr_i[21]
*1085 boot_addr_i[22]
*1086 boot_addr_i[23]
*1087 boot_addr_i[24]
*1088 boot_addr_i[25]
*1089 boot_addr_i[26]
*1090 boot_addr_i[27]
*1091 boot_addr_i[28]
*1092 boot_addr_i[29]
*1093 boot_addr_i[2]
*1094 boot_addr_i[30]
*1095 boot_addr_i[31]
*1096 boot_addr_i[3]
*1097 boot_addr_i[4]
*1098 boot_addr_i[5]
*1099 boot_addr_i[6]
*1100 boot_addr_i[7]
*1101 boot_addr_i[8]
*1102 boot_addr_i[9]
*1103 branch_target_ex_i[0]
*1104 branch_target_ex_i[10]
*1105 branch_target_ex_i[11]
*1106 branch_target_ex_i[12]
*1107 branch_target_ex_i[13]
*1108 branch_target_ex_i[14]
*1109 branch_target_ex_i[15]
*1110 branch_target_ex_i[16]
*1111 branch_target_ex_i[17]
*1112 branch_target_ex_i[18]
*1113 branch_target_ex_i[19]
*1114 branch_target_ex_i[1]
*1115 branch_target_ex_i[20]
*1116 branch_target_ex_i[21]
*1117 branch_target_ex_i[22]
*1118 branch_target_ex_i[23]
*1119 branch_target_ex_i[24]
*1120 branch_target_ex_i[25]
*1121 branch_target_ex_i[26]
*1122 branch_target_ex_i[27]
*1123 branch_target_ex_i[28]
*1124 branch_target_ex_i[29]
*1125 branch_target_ex_i[2]
*1126 branch_target_ex_i[30]
*1127 branch_target_ex_i[31]
*1128 branch_target_ex_i[3]
*1129 branch_target_ex_i[4]
*1130 branch_target_ex_i[5]
*1131 branch_target_ex_i[6]
*1132 branch_target_ex_i[7]
*1133 branch_target_ex_i[8]
*1134 branch_target_ex_i[9]
*1135 clk_i
*1136 compressed_decoder_i\.illegal_instr_o
*1137 compressed_decoder_i\.instr_i\[0\]
*1138 compressed_decoder_i\.instr_i\[10\]
*1139 compressed_decoder_i\.instr_i\[11\]
*1140 compressed_decoder_i\.instr_i\[12\]
*1141 compressed_decoder_i\.instr_i\[13\]
*1142 compressed_decoder_i\.instr_i\[14\]
*1143 compressed_decoder_i\.instr_i\[15\]
*1144 compressed_decoder_i\.instr_i\[1\]
*1145 compressed_decoder_i\.instr_i\[2\]
*1146 compressed_decoder_i\.instr_i\[3\]
*1147 compressed_decoder_i\.instr_i\[4\]
*1148 compressed_decoder_i\.instr_i\[5\]
*1149 compressed_decoder_i\.instr_i\[6\]
*1150 compressed_decoder_i\.instr_i\[7\]
*1151 compressed_decoder_i\.instr_i\[8\]
*1152 compressed_decoder_i\.instr_i\[9\]
*1153 compressed_decoder_i\.instr_o\[0\]
*1154 compressed_decoder_i\.instr_o\[10\]
*1155 compressed_decoder_i\.instr_o\[11\]
*1156 compressed_decoder_i\.instr_o\[12\]
*1157 compressed_decoder_i\.instr_o\[13\]
*1158 compressed_decoder_i\.instr_o\[14\]
*1159 compressed_decoder_i\.instr_o\[15\]
*1160 compressed_decoder_i\.instr_o\[16\]
*1161 compressed_decoder_i\.instr_o\[17\]
*1162 compressed_decoder_i\.instr_o\[18\]
*1163 compressed_decoder_i\.instr_o\[19\]
*1164 compressed_decoder_i\.instr_o\[1\]
*1165 compressed_decoder_i\.instr_o\[20\]
*1166 compressed_decoder_i\.instr_o\[21\]
*1167 compressed_decoder_i\.instr_o\[22\]
*1168 compressed_decoder_i\.instr_o\[23\]
*1169 compressed_decoder_i\.instr_o\[24\]
*1170 compressed_decoder_i\.instr_o\[25\]
*1171 compressed_decoder_i\.instr_o\[26\]
*1172 compressed_decoder_i\.instr_o\[27\]
*1173 compressed_decoder_i\.instr_o\[28\]
*1174 compressed_decoder_i\.instr_o\[29\]
*1175 compressed_decoder_i\.instr_o\[2\]
*1176 compressed_decoder_i\.instr_o\[30\]
*1177 compressed_decoder_i\.instr_o\[31\]
*1178 compressed_decoder_i\.instr_o\[3\]
*1179 compressed_decoder_i\.instr_o\[4\]
*1180 compressed_decoder_i\.instr_o\[5\]
*1181 compressed_decoder_i\.instr_o\[6\]
*1182 compressed_decoder_i\.instr_o\[7\]
*1183 compressed_decoder_i\.instr_o\[8\]
*1184 compressed_decoder_i\.instr_o\[9\]
*1185 compressed_decoder_i\.is_compressed_o
*1186 csr_depc_i[0]
*1187 csr_depc_i[10]
*1188 csr_depc_i[11]
*1189 csr_depc_i[12]
*1190 csr_depc_i[13]
*1191 csr_depc_i[14]
*1192 csr_depc_i[15]
*1193 csr_depc_i[16]
*1194 csr_depc_i[17]
*1195 csr_depc_i[18]
*1196 csr_depc_i[19]
*1197 csr_depc_i[1]
*1198 csr_depc_i[20]
*1199 csr_depc_i[21]
*1200 csr_depc_i[22]
*1201 csr_depc_i[23]
*1202 csr_depc_i[24]
*1203 csr_depc_i[25]
*1204 csr_depc_i[26]
*1205 csr_depc_i[27]
*1206 csr_depc_i[28]
*1207 csr_depc_i[29]
*1208 csr_depc_i[2]
*1209 csr_depc_i[30]
*1210 csr_depc_i[31]
*1211 csr_depc_i[3]
*1212 csr_depc_i[4]
*1213 csr_depc_i[5]
*1214 csr_depc_i[6]
*1215 csr_depc_i[7]
*1216 csr_depc_i[8]
*1217 csr_depc_i[9]
*1218 csr_mepc_i[0]
*1219 csr_mepc_i[10]
*1220 csr_mepc_i[11]
*1221 csr_mepc_i[12]
*1222 csr_mepc_i[13]
*1223 csr_mepc_i[14]
*1224 csr_mepc_i[15]
*1225 csr_mepc_i[16]
*1226 csr_mepc_i[17]
*1227 csr_mepc_i[18]
*1228 csr_mepc_i[19]
*1229 csr_mepc_i[1]
*1230 csr_mepc_i[20]
*1231 csr_mepc_i[21]
*1232 csr_mepc_i[22]
*1233 csr_mepc_i[23]
*1234 csr_mepc_i[24]
*1235 csr_mepc_i[25]
*1236 csr_mepc_i[26]
*1237 csr_mepc_i[27]
*1238 csr_mepc_i[28]
*1239 csr_mepc_i[29]
*1240 csr_mepc_i[2]
*1241 csr_mepc_i[30]
*1242 csr_mepc_i[31]
*1243 csr_mepc_i[3]
*1244 csr_mepc_i[4]
*1245 csr_mepc_i[5]
*1246 csr_mepc_i[6]
*1247 csr_mepc_i[7]
*1248 csr_mepc_i[8]
*1249 csr_mepc_i[9]
*1250 csr_mtvec_i[0]
*1251 csr_mtvec_i[10]
*1252 csr_mtvec_i[11]
*1253 csr_mtvec_i[12]
*1254 csr_mtvec_i[13]
*1255 csr_mtvec_i[14]
*1256 csr_mtvec_i[15]
*1257 csr_mtvec_i[16]
*1258 csr_mtvec_i[17]
*1259 csr_mtvec_i[18]
*1260 csr_mtvec_i[19]
*1261 csr_mtvec_i[1]
*1262 csr_mtvec_i[20]
*1263 csr_mtvec_i[21]
*1264 csr_mtvec_i[22]
*1265 csr_mtvec_i[23]
*1266 csr_mtvec_i[24]
*1267 csr_mtvec_i[25]
*1268 csr_mtvec_i[26]
*1269 csr_mtvec_i[27]
*1270 csr_mtvec_i[28]
*1271 csr_mtvec_i[29]
*1272 csr_mtvec_i[2]
*1273 csr_mtvec_i[30]
*1274 csr_mtvec_i[31]
*1275 csr_mtvec_i[3]
*1276 csr_mtvec_i[4]
*1277 csr_mtvec_i[5]
*1278 csr_mtvec_i[6]
*1279 csr_mtvec_i[7]
*1280 csr_mtvec_i[8]
*1281 csr_mtvec_i[9]
*1282 net198
*1283 dummy_instr_en_i
*1284 dummy_instr_id_o
*1285 dummy_instr_mask_i[0]
*1286 dummy_instr_mask_i[1]
*1287 dummy_instr_mask_i[2]
*1288 dummy_instr_seed_en_i
*1289 dummy_instr_seed_i[0]
*1290 dummy_instr_seed_i[10]
*1291 dummy_instr_seed_i[11]
*1292 dummy_instr_seed_i[12]
*1293 dummy_instr_seed_i[13]
*1294 dummy_instr_seed_i[14]
*1295 dummy_instr_seed_i[15]
*1296 dummy_instr_seed_i[16]
*1297 dummy_instr_seed_i[17]
*1298 dummy_instr_seed_i[18]
*1299 dummy_instr_seed_i[19]
*1300 dummy_instr_seed_i[1]
*1301 dummy_instr_seed_i[20]
*1302 dummy_instr_seed_i[21]
*1303 dummy_instr_seed_i[22]
*1304 dummy_instr_seed_i[23]
*1305 dummy_instr_seed_i[24]
*1306 dummy_instr_seed_i[25]
*1307 dummy_instr_seed_i[26]
*1308 dummy_instr_seed_i[27]
*1309 dummy_instr_seed_i[28]
*1310 dummy_instr_seed_i[29]
*1311 dummy_instr_seed_i[2]
*1312 dummy_instr_seed_i[30]
*1313 dummy_instr_seed_i[31]
*1314 dummy_instr_seed_i[3]
*1315 dummy_instr_seed_i[4]
*1316 dummy_instr_seed_i[5]
*1317 dummy_instr_seed_i[6]
*1318 dummy_instr_seed_i[7]
*1319 dummy_instr_seed_i[8]
*1320 dummy_instr_seed_i[9]
*1321 exc_cause[0]
*1322 exc_cause[1]
*1323 exc_cause[2]
*1324 exc_cause[3]
*1325 exc_cause[4]
*1326 exc_cause[5]
*1327 exc_pc_mux_i[0]
*1328 exc_pc_mux_i[1]
*1329 fetch_err
*1330 gen_prefetch_buffer\.prefetch_buffer_i\.branch_discard_q\[0\]
*1331 gen_prefetch_buffer\.prefetch_buffer_i\.branch_discard_q\[1\]
*1332 gen_prefetch_buffer\.prefetch_buffer_i\.branch_discard_s\[0\]
*1333 gen_prefetch_buffer\.prefetch_buffer_i\.branch_discard_s\[1\]
*1334 gen_prefetch_buffer\.prefetch_buffer_i\.discard_req_d
*1335 gen_prefetch_buffer\.prefetch_buffer_i\.discard_req_q
*1336 gen_prefetch_buffer\.prefetch_buffer_i\.fetch_addr_d\[10\]
*1337 gen_prefetch_buffer\.prefetch_buffer_i\.fetch_addr_d\[11\]
*1338 gen_prefetch_buffer\.prefetch_buffer_i\.fetch_addr_d\[12\]
*1339 gen_prefetch_buffer\.prefetch_buffer_i\.fetch_addr_d\[13\]
*1340 gen_prefetch_buffer\.prefetch_buffer_i\.fetch_addr_d\[14\]
*1341 gen_prefetch_buffer\.prefetch_buffer_i\.fetch_addr_d\[15\]
*1342 gen_prefetch_buffer\.prefetch_buffer_i\.fetch_addr_d\[16\]
*1343 gen_prefetch_buffer\.prefetch_buffer_i\.fetch_addr_d\[17\]
*1344 gen_prefetch_buffer\.prefetch_buffer_i\.fetch_addr_d\[18\]
*1345 gen_prefetch_buffer\.prefetch_buffer_i\.fetch_addr_d\[19\]
*1346 gen_prefetch_buffer\.prefetch_buffer_i\.fetch_addr_d\[20\]
*1347 gen_prefetch_buffer\.prefetch_buffer_i\.fetch_addr_d\[21\]
*1348 gen_prefetch_buffer\.prefetch_buffer_i\.fetch_addr_d\[22\]
*1349 gen_prefetch_buffer\.prefetch_buffer_i\.fetch_addr_d\[23\]
*1350 gen_prefetch_buffer\.prefetch_buffer_i\.fetch_addr_d\[24\]
*1351 gen_prefetch_buffer\.prefetch_buffer_i\.fetch_addr_d\[25\]
*1352 gen_prefetch_buffer\.prefetch_buffer_i\.fetch_addr_d\[26\]
*1353 gen_prefetch_buffer\.prefetch_buffer_i\.fetch_addr_d\[27\]
*1354 gen_prefetch_buffer\.prefetch_buffer_i\.fetch_addr_d\[28\]
*1355 gen_prefetch_buffer\.prefetch_buffer_i\.fetch_addr_d\[29\]
*1356 gen_prefetch_buffer\.prefetch_buffer_i\.fetch_addr_d\[2\]
*1357 gen_prefetch_buffer\.prefetch_buffer_i\.fetch_addr_d\[30\]
*1358 gen_prefetch_buffer\.prefetch_buffer_i\.fetch_addr_d\[31\]
*1359 gen_prefetch_buffer\.prefetch_buffer_i\.fetch_addr_d\[3\]
*1360 gen_prefetch_buffer\.prefetch_buffer_i\.fetch_addr_d\[4\]
*1361 gen_prefetch_buffer\.prefetch_buffer_i\.fetch_addr_d\[5\]
*1362 gen_prefetch_buffer\.prefetch_buffer_i\.fetch_addr_d\[6\]
*1363 gen_prefetch_buffer\.prefetch_buffer_i\.fetch_addr_d\[7\]
*1364 gen_prefetch_buffer\.prefetch_buffer_i\.fetch_addr_d\[8\]
*1365 gen_prefetch_buffer\.prefetch_buffer_i\.fetch_addr_d\[9\]
*1366 gen_prefetch_buffer\.prefetch_buffer_i\.fetch_addr_en
*1367 gen_prefetch_buffer\.prefetch_buffer_i\.fetch_addr_q\[10\]
*1368 gen_prefetch_buffer\.prefetch_buffer_i\.fetch_addr_q\[11\]
*1369 gen_prefetch_buffer\.prefetch_buffer_i\.fetch_addr_q\[12\]
*1370 gen_prefetch_buffer\.prefetch_buffer_i\.fetch_addr_q\[13\]
*1371 gen_prefetch_buffer\.prefetch_buffer_i\.fetch_addr_q\[14\]
*1372 gen_prefetch_buffer\.prefetch_buffer_i\.fetch_addr_q\[15\]
*1373 gen_prefetch_buffer\.prefetch_buffer_i\.fetch_addr_q\[16\]
*1374 gen_prefetch_buffer\.prefetch_buffer_i\.fetch_addr_q\[17\]
*1375 gen_prefetch_buffer\.prefetch_buffer_i\.fetch_addr_q\[18\]
*1376 gen_prefetch_buffer\.prefetch_buffer_i\.fetch_addr_q\[19\]
*1377 gen_prefetch_buffer\.prefetch_buffer_i\.fetch_addr_q\[20\]
*1378 gen_prefetch_buffer\.prefetch_buffer_i\.fetch_addr_q\[21\]
*1379 gen_prefetch_buffer\.prefetch_buffer_i\.fetch_addr_q\[22\]
*1380 gen_prefetch_buffer\.prefetch_buffer_i\.fetch_addr_q\[23\]
*1381 gen_prefetch_buffer\.prefetch_buffer_i\.fetch_addr_q\[24\]
*1382 gen_prefetch_buffer\.prefetch_buffer_i\.fetch_addr_q\[25\]
*1383 gen_prefetch_buffer\.prefetch_buffer_i\.fetch_addr_q\[26\]
*1384 gen_prefetch_buffer\.prefetch_buffer_i\.fetch_addr_q\[27\]
*1385 gen_prefetch_buffer\.prefetch_buffer_i\.fetch_addr_q\[28\]
*1386 gen_prefetch_buffer\.prefetch_buffer_i\.fetch_addr_q\[29\]
*1387 gen_prefetch_buffer\.prefetch_buffer_i\.fetch_addr_q\[2\]
*1388 gen_prefetch_buffer\.prefetch_buffer_i\.fetch_addr_q\[30\]
*1389 gen_prefetch_buffer\.prefetch_buffer_i\.fetch_addr_q\[31\]
*1390 gen_prefetch_buffer\.prefetch_buffer_i\.fetch_addr_q\[3\]
*1391 gen_prefetch_buffer\.prefetch_buffer_i\.fetch_addr_q\[4\]
*1392 gen_prefetch_buffer\.prefetch_buffer_i\.fetch_addr_q\[5\]
*1393 gen_prefetch_buffer\.prefetch_buffer_i\.fetch_addr_q\[6\]
*1394 gen_prefetch_buffer\.prefetch_buffer_i\.fetch_addr_q\[7\]
*1395 gen_prefetch_buffer\.prefetch_buffer_i\.fetch_addr_q\[8\]
*1396 gen_prefetch_buffer\.prefetch_buffer_i\.fetch_addr_q\[9\]
*1397 gen_prefetch_buffer\.prefetch_buffer_i\.fifo_busy\[0\]
*1398 gen_prefetch_buffer\.prefetch_buffer_i\.fifo_busy\[1\]
*1399 gen_prefetch_buffer\.prefetch_buffer_i\.fifo_i\.entry_en\[0\]
*1400 gen_prefetch_buffer\.prefetch_buffer_i\.fifo_i\.entry_en\[1\]
*1401 gen_prefetch_buffer\.prefetch_buffer_i\.fifo_i\.entry_en\[2\]
*1402 gen_prefetch_buffer\.prefetch_buffer_i\.fifo_i\.err_d\[0\]
*1403 gen_prefetch_buffer\.prefetch_buffer_i\.fifo_i\.err_d\[1\]
*1404 gen_prefetch_buffer\.prefetch_buffer_i\.fifo_i\.err_d\[2\]
*1405 gen_prefetch_buffer\.prefetch_buffer_i\.fifo_i\.err_q\[0\]
*1406 gen_prefetch_buffer\.prefetch_buffer_i\.fifo_i\.err_q\[1\]
*1407 gen_prefetch_buffer\.prefetch_buffer_i\.fifo_i\.err_q\[2\]
*1408 gen_prefetch_buffer\.prefetch_buffer_i\.fifo_i\.instr_addr_d\[10\]
*1409 gen_prefetch_buffer\.prefetch_buffer_i\.fifo_i\.instr_addr_d\[11\]
*1410 gen_prefetch_buffer\.prefetch_buffer_i\.fifo_i\.instr_addr_d\[12\]
*1411 gen_prefetch_buffer\.prefetch_buffer_i\.fifo_i\.instr_addr_d\[13\]
*1412 gen_prefetch_buffer\.prefetch_buffer_i\.fifo_i\.instr_addr_d\[14\]
*1413 gen_prefetch_buffer\.prefetch_buffer_i\.fifo_i\.instr_addr_d\[15\]
*1414 gen_prefetch_buffer\.prefetch_buffer_i\.fifo_i\.instr_addr_d\[16\]
*1415 gen_prefetch_buffer\.prefetch_buffer_i\.fifo_i\.instr_addr_d\[17\]
*1416 gen_prefetch_buffer\.prefetch_buffer_i\.fifo_i\.instr_addr_d\[18\]
*1417 gen_prefetch_buffer\.prefetch_buffer_i\.fifo_i\.instr_addr_d\[19\]
*1418 gen_prefetch_buffer\.prefetch_buffer_i\.fifo_i\.instr_addr_d\[1\]
*1419 gen_prefetch_buffer\.prefetch_buffer_i\.fifo_i\.instr_addr_d\[20\]
*1420 gen_prefetch_buffer\.prefetch_buffer_i\.fifo_i\.instr_addr_d\[21\]
*1421 gen_prefetch_buffer\.prefetch_buffer_i\.fifo_i\.instr_addr_d\[22\]
*1422 gen_prefetch_buffer\.prefetch_buffer_i\.fifo_i\.instr_addr_d\[23\]
*1423 gen_prefetch_buffer\.prefetch_buffer_i\.fifo_i\.instr_addr_d\[24\]
*1424 gen_prefetch_buffer\.prefetch_buffer_i\.fifo_i\.instr_addr_d\[25\]
*1425 gen_prefetch_buffer\.prefetch_buffer_i\.fifo_i\.instr_addr_d\[26\]
*1426 gen_prefetch_buffer\.prefetch_buffer_i\.fifo_i\.instr_addr_d\[27\]
*1427 gen_prefetch_buffer\.prefetch_buffer_i\.fifo_i\.instr_addr_d\[28\]
*1428 gen_prefetch_buffer\.prefetch_buffer_i\.fifo_i\.instr_addr_d\[29\]
*1429 gen_prefetch_buffer\.prefetch_buffer_i\.fifo_i\.instr_addr_d\[2\]
*1430 gen_prefetch_buffer\.prefetch_buffer_i\.fifo_i\.instr_addr_d\[30\]
*1431 gen_prefetch_buffer\.prefetch_buffer_i\.fifo_i\.instr_addr_d\[31\]
*1432 gen_prefetch_buffer\.prefetch_buffer_i\.fifo_i\.instr_addr_d\[3\]
*1433 gen_prefetch_buffer\.prefetch_buffer_i\.fifo_i\.instr_addr_d\[4\]
*1434 gen_prefetch_buffer\.prefetch_buffer_i\.fifo_i\.instr_addr_d\[5\]
*1435 gen_prefetch_buffer\.prefetch_buffer_i\.fifo_i\.instr_addr_d\[6\]
*1436 gen_prefetch_buffer\.prefetch_buffer_i\.fifo_i\.instr_addr_d\[7\]
*1437 gen_prefetch_buffer\.prefetch_buffer_i\.fifo_i\.instr_addr_d\[8\]
*1438 gen_prefetch_buffer\.prefetch_buffer_i\.fifo_i\.instr_addr_d\[9\]
*1439 gen_prefetch_buffer\.prefetch_buffer_i\.fifo_i\.instr_addr_en
*1440 gen_prefetch_buffer\.prefetch_buffer_i\.fifo_i\.rdata_d\[0\]
*1441 gen_prefetch_buffer\.prefetch_buffer_i\.fifo_i\.rdata_d\[10\]
*1442 gen_prefetch_buffer\.prefetch_buffer_i\.fifo_i\.rdata_d\[11\]
*1443 gen_prefetch_buffer\.prefetch_buffer_i\.fifo_i\.rdata_d\[12\]
*1444 gen_prefetch_buffer\.prefetch_buffer_i\.fifo_i\.rdata_d\[13\]
*1445 gen_prefetch_buffer\.prefetch_buffer_i\.fifo_i\.rdata_d\[14\]
*1446 gen_prefetch_buffer\.prefetch_buffer_i\.fifo_i\.rdata_d\[15\]
*1447 gen_prefetch_buffer\.prefetch_buffer_i\.fifo_i\.rdata_d\[16\]
*1448 gen_prefetch_buffer\.prefetch_buffer_i\.fifo_i\.rdata_d\[17\]
*1449 gen_prefetch_buffer\.prefetch_buffer_i\.fifo_i\.rdata_d\[18\]
*1450 gen_prefetch_buffer\.prefetch_buffer_i\.fifo_i\.rdata_d\[19\]
*1451 gen_prefetch_buffer\.prefetch_buffer_i\.fifo_i\.rdata_d\[1\]
*1452 gen_prefetch_buffer\.prefetch_buffer_i\.fifo_i\.rdata_d\[20\]
*1453 gen_prefetch_buffer\.prefetch_buffer_i\.fifo_i\.rdata_d\[21\]
*1454 gen_prefetch_buffer\.prefetch_buffer_i\.fifo_i\.rdata_d\[22\]
*1455 gen_prefetch_buffer\.prefetch_buffer_i\.fifo_i\.rdata_d\[23\]
*1456 gen_prefetch_buffer\.prefetch_buffer_i\.fifo_i\.rdata_d\[24\]
*1457 gen_prefetch_buffer\.prefetch_buffer_i\.fifo_i\.rdata_d\[25\]
*1458 gen_prefetch_buffer\.prefetch_buffer_i\.fifo_i\.rdata_d\[26\]
*1459 gen_prefetch_buffer\.prefetch_buffer_i\.fifo_i\.rdata_d\[27\]
*1460 gen_prefetch_buffer\.prefetch_buffer_i\.fifo_i\.rdata_d\[28\]
*1461 gen_prefetch_buffer\.prefetch_buffer_i\.fifo_i\.rdata_d\[29\]
*1462 gen_prefetch_buffer\.prefetch_buffer_i\.fifo_i\.rdata_d\[2\]
*1463 gen_prefetch_buffer\.prefetch_buffer_i\.fifo_i\.rdata_d\[30\]
*1464 gen_prefetch_buffer\.prefetch_buffer_i\.fifo_i\.rdata_d\[31\]
*1465 gen_prefetch_buffer\.prefetch_buffer_i\.fifo_i\.rdata_d\[32\]
*1466 gen_prefetch_buffer\.prefetch_buffer_i\.fifo_i\.rdata_d\[33\]
*1467 gen_prefetch_buffer\.prefetch_buffer_i\.fifo_i\.rdata_d\[34\]
*1468 gen_prefetch_buffer\.prefetch_buffer_i\.fifo_i\.rdata_d\[35\]
*1469 gen_prefetch_buffer\.prefetch_buffer_i\.fifo_i\.rdata_d\[36\]
*1470 gen_prefetch_buffer\.prefetch_buffer_i\.fifo_i\.rdata_d\[37\]
*1471 gen_prefetch_buffer\.prefetch_buffer_i\.fifo_i\.rdata_d\[38\]
*1472 gen_prefetch_buffer\.prefetch_buffer_i\.fifo_i\.rdata_d\[39\]
*1473 gen_prefetch_buffer\.prefetch_buffer_i\.fifo_i\.rdata_d\[3\]
*1474 gen_prefetch_buffer\.prefetch_buffer_i\.fifo_i\.rdata_d\[40\]
*1475 gen_prefetch_buffer\.prefetch_buffer_i\.fifo_i\.rdata_d\[41\]