*SPEF "ieee 1481-1999"
*DESIGN "ibex_id_stage"
*DATE "22:14:58 Monday March 24, 2025"
*VENDOR "The OpenROAD Project"
*PROGRAM "OpenROAD"
*VERSION "v2.0-19351-g6c51970ad"
*DESIGN_FLOW "NAME_SCOPE LOCAL" "PIN_CAP NONE"
*DIVIDER /
*DELIMITER :
*BUS_DELIMITER []
*T_UNIT 1 NS
*C_UNIT 1 PF
*R_UNIT 1 OHM
*L_UNIT 1 HENRY

*NAME_MAP
*1 _0000_
*2 _0001_
*3 _0002_
*4 _0003_
*5 _0004_
*6 _0005_
*7 _0006_
*8 _0007_
*9 _0008_
*10 _0009_
*11 _0010_
*12 _0011_
*13 _0012_
*14 _0013_
*15 _0014_
*16 _0015_
*17 _0016_
*18 _0017_
*19 _0018_
*20 _0019_
*21 _0020_
*22 _0021_
*23 _0022_
*24 _0023_
*25 _0024_
*26 _0025_
*27 _0026_
*28 _0027_
*29 _0028_
*30 _0029_
*31 _0030_
*32 _0031_
*33 _0032_
*34 _0033_
*35 _0034_
*36 _0035_
*37 _0036_
*38 _0037_
*39 _0038_
*40 _0039_
*41 _0040_
*42 _0041_
*43 _0042_
*44 _0043_
*45 _0044_
*46 _0045_
*47 _0046_
*48 _0047_
*49 _0048_
*50 _0049_
*51 _0050_
*52 _0051_
*53 _0052_
*54 _0053_
*55 _0054_
*56 _0055_
*57 _0056_
*58 _0057_
*59 _0058_
*60 _0059_
*61 _0060_
*62 _0061_
*63 _0062_
*64 _0063_
*65 _0064_
*66 _0065_
*67 _0066_
*68 _0067_
*69 _0068_
*70 _0069_
*71 _0070_
*72 _0071_
*73 _0072_
*74 _0073_
*75 _0074_
*76 _0075_
*77 _0076_
*78 _0077_
*79 _0078_
*80 _0079_
*81 _0080_
*82 _0081_
*83 _0082_
*84 _0083_
*85 _0084_
*86 _0085_
*87 _0086_
*88 _0087_
*89 _0088_
*90 _0089_
*91 _0090_
*92 _0091_
*93 _0092_
*94 _0093_
*95 _0094_
*96 _0095_
*97 _0096_
*98 _0097_
*99 _0098_
*100 _0099_
*101 _0100_
*102 _0101_
*103 _0102_
*104 _0103_
*105 _0104_
*106 _0105_
*107 _0106_
*108 _0107_
*109 _0108_
*110 _0109_
*111 _0110_
*112 _0111_
*113 _0112_
*114 _0113_
*115 _0114_
*116 _0115_
*117 _0116_
*118 _0117_
*119 _0118_
*120 _0119_
*121 _0120_
*122 _0121_
*123 _0122_
*124 _0123_
*125 _0124_
*126 _0125_
*127 _0126_
*128 _0127_
*129 _0128_
*130 _0129_
*131 _0130_
*132 _0131_
*133 _0132_
*134 _0133_
*135 _0134_
*136 _0135_
*137 _0136_
*138 _0137_
*139 _0138_
*140 _0139_
*141 _0140_
*142 _0141_
*143 _0142_
*144 _0143_
*145 _0144_
*146 _0145_
*147 _0146_
*148 _0147_
*149 _0148_
*150 _0149_
*151 _0150_
*152 _0151_
*153 _0152_
*154 _0153_
*155 _0154_
*156 _0155_
*157 _0156_
*158 _0157_
*159 _0158_
*160 _0159_
*161 _0160_
*162 _0161_
*163 _0162_
*164 _0163_
*165 _0164_
*166 _0165_
*167 _0166_
*168 _0167_
*169 _0168_
*170 _0169_
*171 _0170_
*172 _0171_
*173 _0172_
*174 _0173_
*175 _0174_
*176 _0175_
*177 _0176_
*178 _0177_
*179 _0178_
*180 _0179_
*181 _0180_
*182 _0181_
*183 _0182_
*184 _0183_
*185 _0184_
*186 _0185_
*187 _0186_
*188 _0187_
*189 _0188_
*190 _0189_
*191 _0190_
*192 _0191_
*193 _0192_
*194 _0193_
*195 _0194_
*196 _0195_
*197 _0196_
*198 _0197_
*199 _0198_
*200 _0199_
*201 _0200_
*202 _0201_
*203 _0202_
*204 _0203_
*205 _0204_
*206 _0205_
*207 _0206_
*208 _0207_
*209 _0208_
*210 _0209_
*211 _0210_
*212 _0211_
*213 _0212_
*214 _0213_
*215 _0214_
*216 _0215_
*217 _0216_
*218 _0217_
*219 _0218_
*220 _0219_
*221 _0220_
*222 _0221_
*223 _0222_
*224 _0223_
*225 _0224_
*226 _0225_
*227 _0226_
*228 _0227_
*229 _0228_
*230 _0229_
*231 _0230_
*232 _0231_
*233 _0232_
*234 _0233_
*235 _0234_
*236 _0235_
*237 _0236_
*238 _0237_
*239 _0238_
*240 _0239_
*241 _0240_
*242 _0241_
*243 _0242_
*244 _0243_
*245 _0244_
*246 _0245_
*247 _0246_
*248 _0247_
*249 _0248_
*250 _0249_
*251 _0250_
*252 _0251_
*253 _0252_
*254 _0253_
*255 _0254_
*256 _0255_
*257 _0256_
*258 _0257_
*259 _0258_
*260 _0259_
*261 _0260_
*262 _0261_
*263 _0262_
*264 _0263_
*265 _0264_
*266 _0265_
*267 _0266_
*268 _0267_
*269 _0268_
*270 _0269_
*271 _0270_
*272 _0271_
*273 _0272_
*274 _0273_
*275 _0274_
*276 _0275_
*277 _0276_
*278 _0277_
*279 _0278_
*280 _0279_
*281 _0280_
*282 _0281_
*283 _0282_
*284 _0283_
*285 _0284_
*286 _0285_
*287 _0286_
*288 _0287_
*289 _0288_
*290 _0289_
*291 _0290_
*292 _0291_
*293 _0292_
*294 _0293_
*295 _0294_
*296 _0295_
*297 _0296_
*298 _0297_
*299 _0298_
*300 _0299_
*301 _0300_
*302 _0301_
*303 _0302_
*304 _0303_
*305 _0304_
*306 _0305_
*307 _0306_
*308 _0307_
*309 _0308_
*310 _0309_
*311 _0310_
*312 _0311_
*313 _0312_
*314 _0313_
*315 _0314_
*316 _0315_
*317 _0316_
*318 _0317_
*319 _0318_
*320 _0319_
*321 _0320_
*322 _0321_
*323 _0322_
*324 _0323_
*325 _0324_
*326 _0325_
*327 _0326_
*328 _0327_
*329 _0328_
*330 _0329_
*331 _0330_
*332 _0331_
*333 _0332_
*334 _0333_
*335 _0334_
*336 _0335_
*337 _0336_
*338 _0337_
*339 _0338_
*340 _0339_
*341 _0340_
*342 _0341_
*343 _0342_
*344 _0343_
*345 _0344_
*346 _0345_
*347 _0346_
*348 _0347_
*349 _0348_
*350 _0349_
*351 _0350_
*352 _0351_
*353 _0352_
*354 _0353_
*355 _0354_
*356 _0355_
*357 _0356_
*358 _0357_
*359 _0358_
*360 _0359_
*361 _0360_
*362 _0361_
*363 _0362_
*364 _0363_
*365 _0364_
*366 _0365_
*367 _0366_
*368 _0367_
*369 _0368_
*370 _0369_
*371 _0370_
*372 _0371_
*373 _0372_
*374 _0373_
*375 _0374_
*376 _0375_
*377 _0376_
*378 _0377_
*379 _0378_
*380 _0379_
*381 _0380_
*382 _0381_
*383 _0382_
*384 _0383_
*385 _0384_
*386 _0385_
*387 _0386_
*388 _0387_
*389 _0388_
*390 _0389_
*391 _0390_
*392 _0391_
*393 _0392_
*394 _0393_
*395 _0394_
*396 _0395_
*397 _0396_
*398 _0397_
*399 _0398_
*400 _0399_
*401 _0400_
*402 _0401_
*403 _0402_
*404 _0403_
*405 _0404_
*406 _0405_
*407 _0406_
*408 _0407_
*409 _0408_
*410 _0409_
*411 _0410_
*412 _0411_
*413 _0412_
*414 _0413_
*415 _0414_
*416 _0415_
*417 _0416_
*418 _0417_
*419 _0418_
*420 _0419_
*421 _0420_
*422 _0421_
*423 _0422_
*424 _0423_
*425 _0424_
*426 _0425_
*427 _0426_
*428 _0427_
*429 _0428_
*430 _0429_
*431 _0430_
*432 _0431_
*433 _0432_
*434 _0433_
*435 _0434_
*436 _0435_
*437 _0436_
*438 _0437_
*439 _0438_
*440 _0439_
*441 _0440_
*442 _0441_
*443 _0442_
*444 _0443_
*445 _0444_
*446 _0445_
*447 _0446_
*448 _0447_
*449 _0448_
*450 _0449_
*451 _0450_
*452 _0451_
*453 _0452_
*454 _0453_
*455 _0454_
*456 _0455_
*457 _0456_
*458 _0457_
*459 _0458_
*460 _0459_
*461 _0460_
*462 _0461_
*463 _0462_
*464 _0463_
*465 _0464_
*466 _0465_
*467 _0466_
*468 _0467_
*469 _0468_
*470 _0469_
*471 _0470_
*472 _0471_
*473 _0472_
*474 _0473_
*475 _0474_
*476 _0475_
*477 _0476_
*478 _0477_
*479 _0478_
*480 _0479_
*481 _0480_
*482 _0481_
*483 _0482_
*484 _0483_
*485 _0484_
*486 _0485_
*487 _0486_
*488 _0487_
*489 _0488_
*490 _0489_
*491 _0490_
*492 _0491_
*493 _0492_
*494 _0493_
*495 _0494_
*496 _0495_
*497 _0496_
*498 _0497_
*499 _0498_
*500 _0499_
*501 _0500_
*502 _0501_
*503 _0502_
*504 _0503_
*505 _0504_
*506 _0505_
*507 _0506_
*508 _0507_
*509 _0508_
*510 _0509_
*511 _0510_
*512 _0511_
*513 _0512_
*514 _0513_
*515 _0514_
*516 _0515_
*517 _0516_
*518 _0517_
*519 _0518_
*520 _0519_
*521 _0520_
*522 _0521_
*523 _0522_
*524 _0523_
*525 _0524_
*526 _0525_
*527 _0526_
*528 _0527_
*529 _0528_
*530 _0529_
*531 _0530_
*532 _0531_
*533 _0532_
*534 _0533_
*535 _0534_
*536 _0535_
*537 _0536_
*538 _0537_
*539 _0538_
*540 _0539_
*541 _0540_
*542 _0541_
*543 _0542_
*544 _0543_
*545 _0544_
*546 _0545_
*547 _0546_
*548 _0547_
*549 _0548_
*550 _0549_
*551 _0550_
*552 _0551_
*553 _0552_
*554 _0553_
*555 _0554_
*556 _0555_
*557 _0556_
*558 _0557_
*559 _0558_
*560 _0559_
*561 _0560_
*562 _0561_
*563 _0562_
*564 _0563_
*565 _0564_
*566 _0565_
*567 _0566_
*568 _0567_
*569 _0568_
*570 _0569_
*571 _0570_
*572 _0571_
*573 _0572_
*574 _0573_
*575 _0574_
*576 _0575_
*577 _0576_
*578 _0577_
*579 _0578_
*580 _0579_
*581 _0580_
*582 _0581_
*583 _0582_
*584 _0583_
*585 _0584_
*586 _0585_
*587 _0586_
*588 _0587_
*589 _0588_
*590 _0589_
*591 _0590_
*592 _0591_
*593 _0592_
*594 _0593_
*595 _0594_
*596 _0595_
*597 _0596_
*598 _0597_
*599 _0598_
*600 _0599_
*601 _0600_
*602 _0601_
*603 _0602_
*604 _0603_
*605 _0604_
*606 _0605_
*607 _0606_
*608 _0607_
*609 _0608_
*610 _0609_
*611 _0610_
*612 _0611_
*613 _0612_
*614 _0613_
*615 _0614_
*616 _0615_
*617 _0616_
*618 _0617_
*619 _0618_
*620 _0619_
*621 _0620_
*622 _0621_
*623 _0622_
*624 _0623_
*625 _0624_
*626 _0625_
*627 _0626_
*628 _0627_
*629 _0628_
*630 _0629_
*631 _0630_
*632 _0631_
*633 _0632_
*634 _0633_
*635 _0634_
*636 _0635_
*637 _0636_
*638 _0637_
*639 _0638_
*640 _0639_
*641 _0640_
*642 _0641_
*643 _0642_
*644 _0643_
*645 _0644_
*646 _0645_
*647 _0646_
*648 _0647_
*649 _0648_
*650 _0649_
*651 _0650_
*652 _0651_
*653 _0652_
*654 _0653_
*655 _0654_
*656 _0655_
*657 _0656_
*658 _0657_
*659 _0658_
*660 _0659_
*661 _0660_
*662 _0661_
*663 _0662_
*664 _0663_
*665 _0664_
*666 _0665_
*667 _0666_
*668 _0667_
*669 _0668_
*670 _0669_
*671 _0670_
*672 _0671_
*673 _0672_
*674 _0673_
*675 _0674_
*676 _0675_
*677 _0676_
*678 _0677_
*679 _0678_
*680 _0679_
*681 _0680_
*682 _0681_
*683 _0682_
*684 _0683_
*685 _0684_
*686 _0685_
*687 _0686_
*688 _0687_
*689 _0688_
*690 _0689_
*691 _0690_
*692 _0691_
*693 _0692_
*694 _0693_
*695 _0694_
*696 _0695_
*697 _0696_
*698 _0697_
*699 _0698_
*700 _0699_
*701 _0700_
*702 _0701_
*703 _0702_
*704 _0703_
*705 _0704_
*706 _0705_
*707 _0706_
*708 _0707_
*709 _0708_
*710 _0709_
*711 _0710_
*712 _0711_
*713 _0712_
*714 _0713_
*715 _0714_
*716 _0715_
*717 _0716_
*718 _0717_
*719 _0718_
*720 _0719_
*721 _0720_
*722 _0721_
*723 _0722_
*724 _0723_
*725 _0724_
*726 _0725_
*727 _0726_
*728 _0727_
*729 _0728_
*730 _0729_
*731 _0730_
*732 _0731_
*733 _0732_
*734 _0733_
*735 _0734_
*736 _0735_
*737 _0736_
*738 _0737_
*739 _0738_
*740 _0739_
*741 _0740_
*742 _0741_
*743 _0742_
*744 _0743_
*745 _0744_
*746 _0745_
*747 _0746_
*748 _0747_
*749 _0748_
*750 _0749_
*751 _0750_
*752 _0751_
*753 _0752_
*754 _0753_
*755 _0754_
*756 _0755_
*757 _0756_
*758 _0757_
*759 _0758_
*760 _0759_
*761 _0760_
*762 _0761_
*763 _0762_
*764 _0763_
*765 _0764_
*766 _0765_
*767 _0766_
*768 _0767_
*769 _0768_
*770 _0769_
*771 _0770_
*772 _0771_
*773 _0772_
*774 _0773_
*775 _0774_
*776 _0775_
*777 _0776_
*778 _0777_
*779 _0778_
*780 _0779_
*781 _0780_
*782 _0781_
*783 _0782_
*784 _0783_
*785 _0784_
*786 _0785_
*787 _0786_
*788 _0787_
*789 _0788_
*790 _0789_
*791 _0790_
*792 _0791_
*793 _0792_
*794 _0793_
*795 _0794_
*796 _0795_
*797 _0796_
*798 _0797_
*799 _0798_
*800 _0799_
*801 _0800_
*802 _0801_
*803 _0802_
*804 _0803_
*805 _0804_
*806 _0805_
*807 _0806_
*808 _0807_
*809 _0808_
*810 _0809_
*811 _0810_
*812 _0811_
*813 _0812_
*814 _0813_
*815 _0814_
*816 _0815_
*817 _0816_
*818 _0817_
*819 _0818_
*820 _0819_
*821 _0820_
*822 _0821_
*823 _0822_
*824 _0823_
*825 _0824_
*826 _0825_
*827 _0826_
*828 _0827_
*829 _0828_
*830 _0829_
*831 _0830_
*832 _0831_
*833 _0832_
*834 _0833_
*835 _0834_
*836 _0835_
*837 _0836_
*838 _0837_
*839 _0838_
*840 _0839_
*841 _0840_
*842 _0841_
*843 _0842_
*844 _0843_
*845 _0844_
*846 _0845_
*847 _0846_
*848 _0847_
*849 _0848_
*850 _0849_
*851 _0850_
*852 _0851_
*853 _0852_
*854 _0853_
*855 _0854_
*856 _0855_
*857 _0856_
*858 _0857_
*859 _0858_
*860 _0859_
*861 _0860_
*862 _0861_
*863 _0862_
*864 _0863_
*865 _0864_
*866 clknet_0_clk_i
*867 net802
*868 net359
*869 net360
*870 net361
*871 net362
*872 net363
*873 net364
*874 net365
*875 net366
*876 net367
*877 net368
*878 net369
*879 net370
*880 net371
*881 net372
*882 net373
*883 net374
*884 net375
*885 net376
*886 net377
*887 net378
*888 net379
*889 net380
*890 net381
*891 net382
*892 net383
*893 net384
*894 net385
*895 net386
*896 net387
*897 net388
*898 net389
*899 net390
*900 net391
*901 net392
*902 net393
*903 net394
*904 net395
*905 net396
*906 net397
*907 net398
*908 net399
*909 net400
*910 net401
*911 net402
*912 net403
*913 net404
*914 net405
*915 net406
*916 net407
*917 net408
*918 net409
*919 net410
*920 net411
*921 net412
*922 net413
*923 net414
*924 net415
*925 net416
*926 net417
*927 net418
*928 net419
*929 net420
*930 net421
*931 net422
*932 net423
*933 net424
*934 net425
*935 net426
*936 net427
*937 net428
*938 branch_decision_i
*939 branch_set
*940 branch_set_d
*941 bt_a_operand_o[0]
*942 bt_a_operand_o[10]
*943 bt_a_operand_o[11]
*944 bt_a_operand_o[12]
*945 bt_a_operand_o[13]
*946 bt_a_operand_o[14]
*947 bt_a_operand_o[15]
*948 bt_a_operand_o[16]
*949 bt_a_operand_o[17]
*950 bt_a_operand_o[18]
*951 bt_a_operand_o[19]
*952 bt_a_operand_o[1]
*953 bt_a_operand_o[20]
*954 bt_a_operand_o[21]
*955 bt_a_operand_o[22]
*956 bt_a_operand_o[23]
*957 bt_a_operand_o[24]
*958 bt_a_operand_o[25]
*959 bt_a_operand_o[26]
*960 bt_a_operand_o[27]
*961 bt_a_operand_o[28]
*962 bt_a_operand_o[29]
*963 bt_a_operand_o[2]
*964 bt_a_operand_o[30]
*965 bt_a_operand_o[31]
*966 bt_a_operand_o[3]
*967 bt_a_operand_o[4]
*968 bt_a_operand_o[5]
*969 bt_a_operand_o[6]
*970 bt_a_operand_o[7]
*971 bt_a_operand_o[8]
*972 bt_a_operand_o[9]
*973 bt_b_operand_o[0]
*974 bt_b_operand_o[10]
*975 bt_b_operand_o[11]
*976 bt_b_operand_o[12]
*977 bt_b_operand_o[13]
*978 bt_b_operand_o[14]
*979 bt_b_operand_o[15]
*980 bt_b_operand_o[16]
*981 bt_b_operand_o[17]
*982 bt_b_operand_o[18]
*983 bt_b_operand_o[19]
*984 bt_b_operand_o[1]
*985 bt_b_operand_o[20]
*986 bt_b_operand_o[21]
*987 bt_b_operand_o[22]
*988 bt_b_operand_o[23]
*989 bt_b_operand_o[24]
*990 bt_b_operand_o[25]
*991 bt_b_operand_o[26]
*992 bt_b_operand_o[27]
*993 bt_b_operand_o[28]
*994 bt_b_operand_o[29]
*995 bt_b_operand_o[2]
*996 bt_b_operand_o[30]
*997 bt_b_operand_o[31]
*998 bt_b_operand_o[3]
*999 bt_b_operand_o[4]
*1000 bt_b_operand_o[5]
*1001 bt_b_operand_o[6]
*1002 bt_b_operand_o[7]
*1003 bt_b_operand_o[8]
*1004 bt_b_operand_o[9]
*1005 clk_i
*1006 controller_i\.ctrl_fsm_cs\[0\]
*1007 controller_i\.ctrl_fsm_cs\[1\]
*1008 controller_i\.ctrl_fsm_cs\[2\]
*1009 controller_i\.ctrl_fsm_cs\[3\]
*1010 controller_i\.exc_req_d
*1011 controller_i\.exc_req_q
*1012 controller_i\.illegal_insn_d
*1013 controller_i\.illegal_insn_q
*1014 controller_i\.load_err_q
*1015 controller_i\.store_err_q
*1016 net429
*1017 csr_mstatus_mie_i
*1018 csr_mstatus_tw_i
*1019 net430
*1020 net431
*1021 net432
*1022 net433
*1023 net434
*1024 net435
*1025 net436
*1026 net437
*1027 net438
*1028 net439
*1029 net440
*1030 net441
*1031 net442
*1032 net443
*1033 net444
*1034 net445
*1035 net446
*1036 net447
*1037 net448
*1038 net449
*1039 net450
*1040 net451
*1041 net452
*1042 net453
*1043 net454
*1044 net455
*1045 net456
*1046 net457
*1047 net458
*1048 net459
*1049 net460
*1050 net461
*1051 net462
*1052 net463
*1053 net464
*1054 csr_rdata_i[0]
*1055 csr_rdata_i[10]
*1056 csr_rdata_i[11]
*1057 csr_rdata_i[12]
*1058 csr_rdata_i[13]
*1059 csr_rdata_i[14]
*1060 csr_rdata_i[15]
*1061 csr_rdata_i[16]
*1062 csr_rdata_i[17]
*1063 csr_rdata_i[18]
*1064 csr_rdata_i[19]
*1065 csr_rdata_i[1]
*1066 csr_rdata_i[20]
*1067 csr_rdata_i[21]
*1068 csr_rdata_i[22]
*1069 csr_rdata_i[23]
*1070 csr_rdata_i[24]
*1071 csr_rdata_i[25]
*1072 csr_rdata_i[26]
*1073 csr_rdata_i[27]
*1074 csr_rdata_i[28]
*1075 csr_rdata_i[29]
*1076 csr_rdata_i[2]
*1077 csr_rdata_i[30]
*1078 csr_rdata_i[31]
*1079 csr_rdata_i[3]
*1080 csr_rdata_i[4]
*1081 csr_rdata_i[5]
*1082 csr_rdata_i[6]
*1083 csr_rdata_i[7]
*1084 csr_rdata_i[8]
*1085 csr_rdata_i[9]
*1086 net465
*1087 net466
*1088 net467
*1089 net468
*1090 net469
*1091 csr_save_wb_o
*1092 net470
*1093 data_ind_timing_i
*1094 net471
*1095 net472
*1096 net473
*1097 net474
*1098 debug_ebreakm_i
*1099 debug_ebreaku_i
*1100 net475
*1101 debug_req_i
*1102 debug_single_step_i
*1103 net476
*1104 net477
*1105 net478
*1106 ex_valid_i
*1107 net479
*1108 net480
*1109 net481
*1110 net482
*1111 net483
*1112 net484
*1113 net485
*1114 net486
*1115 net487
*1116 id_fsm_q
*1117 net488
*1118 illegal_c_insn_i
*1119 illegal_csr_insn_i
*1120 net489
*1121 imd_val_d_ex_i[0]
*1122 imd_val_d_ex_i[10]
*1123 imd_val_d_ex_i[11]
*1124 imd_val_d_ex_i[12]
*1125 imd_val_d_ex_i[13]
*1126 imd_val_d_ex_i[14]
*1127 imd_val_d_ex_i[15]
*1128 imd_val_d_ex_i[16]
*1129 imd_val_d_ex_i[17]
*1130 imd_val_d_ex_i[18]
*1131 imd_val_d_ex_i[19]
*1132 imd_val_d_ex_i[1]
*1133 imd_val_d_ex_i[20]
*1134 imd_val_d_ex_i[21]
*1135 imd_val_d_ex_i[22]
*1136 imd_val_d_ex_i[23]
*1137 imd_val_d_ex_i[24]
*1138 imd_val_d_ex_i[25]
*1139 imd_val_d_ex_i[26]
*1140 imd_val_d_ex_i[27]
*1141 imd_val_d_ex_i[28]
*1142 imd_val_d_ex_i[29]
*1143 imd_val_d_ex_i[2]
*1144 imd_val_d_ex_i[30]
*1145 imd_val_d_ex_i[31]
*1146 imd_val_d_ex_i[32]
*1147 imd_val_d_ex_i[33]
*1148 imd_val_d_ex_i[34]
*1149 imd_val_d_ex_i[35]
*1150 imd_val_d_ex_i[36]
*1151 imd_val_d_ex_i[37]
*1152 imd_val_d_ex_i[38]
*1153 imd_val_d_ex_i[39]
*1154 imd_val_d_ex_i[3]
*1155 imd_val_d_ex_i[40]
*1156 imd_val_d_ex_i[41]
*1157 imd_val_d_ex_i[42]
*1158 imd_val_d_ex_i[43]
*1159 imd_val_d_ex_i[44]
*1160 imd_val_d_ex_i[45]
*1161 imd_val_d_ex_i[46]
*1162 imd_val_d_ex_i[47]
*1163 imd_val_d_ex_i[48]
*1164 imd_val_d_ex_i[49]
*1165 imd_val_d_ex_i[4]
*1166 imd_val_d_ex_i[50]
*1167 imd_val_d_ex_i[51]
*1168 imd_val_d_ex_i[52]
*1169 imd_val_d_ex_i[53]
*1170 imd_val_d_ex_i[54]
*1171 imd_val_d_ex_i[55]
*1172 imd_val_d_ex_i[56]
*1173 imd_val_d_ex_i[57]
*1174 imd_val_d_ex_i[58]
*1175 imd_val_d_ex_i[59]
*1176 imd_val_d_ex_i[5]
*1177 imd_val_d_ex_i[60]
*1178 imd_val_d_ex_i[61]
*1179 imd_val_d_ex_i[62]
*1180 imd_val_d_ex_i[63]
*1181 imd_val_d_ex_i[64]
*1182 imd_val_d_ex_i[65]
*1183 imd_val_d_ex_i[66]
*1184 imd_val_d_ex_i[67]
*1185 imd_val_d_ex_i[6]
*1186 imd_val_d_ex_i[7]
*1187 imd_val_d_ex_i[8]
*1188 imd_val_d_ex_i[9]
*1189 net490
*1190 net491
*1191 net492
*1192 net493
*1193 net494
*1194 net495
*1195 net496
*1196 net497
*1197 net498
*1198 net499
*1199 net500
*1200 net501
*1201 net502
*1202 net503
*1203 net504
*1204 net505
*1205 net506
*1206 net507
*1207 net508
*1208 net509
*1209 net510
*1210 net511
*1211 net512
*1212 net513
*1213 net514
*1214 net515
*1215 net516
*1216 net517
*1217 net518
*1218 net519
*1219 net520
*1220 net521
*1221 net522
*1222 net523
*1223 net524
*1224 net525
*1225 net526
*1226 net527
*1227 net528
*1228 net529
*1229 net530
*1230 net531
*1231 net532
*1232 net533
*1233 net534
*1234 net535
*1235 net536
*1236 net537
*1237 net538
*1238 net539
*1239 net540
*1240 net541
*1241 net542
*1242 net543
*1243 net544
*1244 net545
*1245 net546
*1246 net547
*1247 net548
*1248 net549
*1249 net550
*1250 net551
*1251 net552
*1252 net553
*1253 net554
*1254 net555
*1255 net556
*1256 net557
*1257 imd_val_we_ex_i[0]
*1258 imd_val_we_ex_i[1]
*1259 instr_bp_taken_i
*1260 instr_fetch_err_i
*1261 instr_fetch_err_plus2_i
*1262 net558
*1263 net559
*1264 instr_is_compressed_i
*1265 net560
*1266 instr_rdata_alu_i[0]
*1267 instr_rdata_alu_i[10]
*1268 instr_rdata_alu_i[11]
*1269 instr_rdata_alu_i[12]
*1270 instr_rdata_alu_i[13]
*1271 instr_rdata_alu_i[14]
*1272 instr_rdata_alu_i[15]
*1273 instr_rdata_alu_i[16]
*1274 instr_rdata_alu_i[17]
*1275 instr_rdata_alu_i[18]
*1276 instr_rdata_alu_i[19]
*1277 instr_rdata_alu_i[1]
*1278 instr_rdata_alu_i[20]
*1279 instr_rdata_alu_i[21]
*1280 instr_rdata_alu_i[22]
*1281 instr_rdata_alu_i[23]
*1282 instr_rdata_alu_i[24]
*1283 instr_rdata_alu_i[25]
*1284 instr_rdata_alu_i[26]
*1285 instr_rdata_alu_i[27]
*1286 instr_rdata_alu_i[28]
*1287 instr_rdata_alu_i[29]
*1288 instr_rdata_alu_i[2]
*1289 instr_rdata_alu_i[30]
*1290 instr_rdata_alu_i[31]
*1291 instr_rdata_alu_i[3]
*1292 instr_rdata_alu_i[4]
*1293 instr_rdata_alu_i[5]
*1294 instr_rdata_alu_i[6]
*1295 instr_rdata_alu_i[7]
*1296 instr_rdata_alu_i[8]
*1297 instr_rdata_alu_i[9]
*1298 instr_rdata_c_i[0]
*1299 instr_rdata_c_i[10]
*1300 instr_rdata_c_i[11]
*1301 instr_rdata_c_i[12]
*1302 instr_rdata_c_i[13]
*1303 instr_rdata_c_i[14]
*1304 instr_rdata_c_i[15]
*1305 instr_rdata_c_i[1]
*1306 instr_rdata_c_i[2]
*1307 instr_rdata_c_i[3]
*1308 instr_rdata_c_i[4]
*1309 instr_rdata_c_i[5]
*1310 instr_rdata_c_i[6]
*1311 instr_rdata_c_i[7]
*1312 instr_rdata_c_i[8]
*1313 instr_rdata_c_i[9]
*1314 instr_rdata_i[0]
*1315 instr_rdata_i[10]
*1316 instr_rdata_i[11]
*1317 instr_rdata_i[12]
*1318 instr_rdata_i[13]
*1319 instr_rdata_i[14]
*1320 instr_rdata_i[15]
*1321 instr_rdata_i[16]
*1322 instr_rdata_i[17]
*1323 instr_rdata_i[18]
*1324 instr_rdata_i[19]
*1325 instr_rdata_i[1]
*1326 instr_rdata_i[20]
*1327 instr_rdata_i[21]
*1328 instr_rdata_i[22]
*1329 instr_rdata_i[23]
*1330 instr_rdata_i[24]
*1331 instr_rdata_i[25]
*1332 instr_rdata_i[26]
*1333 instr_rdata_i[27]
*1334 instr_rdata_i[28]
*1335 instr_rdata_i[29]
*1336 instr_rdata_i[2]
*1337 instr_rdata_i[30]
*1338 instr_rdata_i[31]
*1339 instr_rdata_i[3]
*1340 instr_rdata_i[4]
*1341 instr_rdata_i[5]
*1342 instr_rdata_i[6]
*1343 instr_rdata_i[7]
*1344 instr_rdata_i[8]
*1345 instr_rdata_i[9]
*1346 net561
*1347 instr_type_wb_o[0]
*1348 instr_type_wb_o[1]
*1349 net562
*1350 instr_valid_i
*1351 irq_nm_i
*1352 irq_pending_i
*1353 irqs_i[0]
*1354 irqs_i[10]
*1355 irqs_i[11]
*1356 irqs_i[12]
*1357 irqs_i[13]
*1358 irqs_i[14]
*1359 irqs_i[15]
*1360 irqs_i[16]
*1361 irqs_i[17]
*1362 irqs_i[1]
*1363 irqs_i[2]
*1364 irqs_i[3]
*1365 irqs_i[4]
*1366 irqs_i[5]
*1367 irqs_i[6]
*1368 irqs_i[7]
*1369 irqs_i[8]
*1370 irqs_i[9]
*1371 lsu_addr_incr_req_i
*1372 lsu_addr_last_i[0]
*1373 lsu_addr_last_i[10]
*1374 lsu_addr_last_i[11]
*1375 lsu_addr_last_i[12]
*1376 lsu_addr_last_i[13]
*1377 lsu_addr_last_i[14]
*1378 lsu_addr_last_i[15]
*1379 lsu_addr_last_i[16]
*1380 lsu_addr_last_i[17]
*1381 lsu_addr_last_i[18]
*1382 lsu_addr_last_i[19]
*1383 lsu_addr_last_i[1]
*1384 lsu_addr_last_i[20]
*1385 lsu_addr_last_i[21]
*1386 lsu_addr_last_i[22]
*1387 lsu_addr_last_i[23]
*1388 lsu_addr_last_i[24]
*1389 lsu_addr_last_i[25]
*1390 lsu_addr_last_i[26]
*1391 lsu_addr_last_i[27]
*1392 lsu_addr_last_i[28]
*1393 lsu_addr_last_i[29]
*1394 lsu_addr_last_i[2]
*1395 lsu_addr_last_i[30]
*1396 lsu_addr_last_i[31]
*1397 lsu_addr_last_i[3]
*1398 lsu_addr_last_i[4]
*1399 lsu_addr_last_i[5]
*1400 lsu_addr_last_i[6]
*1401 lsu_addr_last_i[7]
*1402 lsu_addr_last_i[8]
*1403 lsu_addr_last_i[9]
*1404 lsu_load_err_i
*1405 lsu_req_done_i
*1406 net563
*1407 lsu_resp_valid_i
*1408 net564
*1409 lsu_store_err_i
*1410 net565
*1411 net566
*1412 net567
*1413 net568
*1414 net569
*1415 net570
*1416 net571
*1417 net572
*1418 net573
*1419 net574
*1420 net575
*1421 net576
*1422 net577
*1423 net578
*1424 net579
*1425 net580
*1426 net581
*1427 net582
*1428 net583
*1429 net584
*1430 net585
*1431 net586
*1432 net587
*1433 net588
*1434 net589
*1435 net590
*1436 net591
*1437 net592
*1438 net593
*1439 net594
*1440 net595
*1441 net596
*1442 net597
*1443 net598
*1444 net599
*1445 net600
*1446 net601
*1447 net602
*1448 net603
*1449 net604
*1450 net605
*1451 net606
*1452 net607
*1453 net608
*1454 net609
*1455 net610
*1456 net611
*1457 net612
*1458 net613
*1459 net614
*1460 net615
*1461 net616
*1462 net617
*1463 net618
*1464 net619
*1465 net620
*1466 net621
*1467 net622
*1468 net623
*1469 net624
*1470 net625
*1471 net626
*1472 net627
*1473 net628
*1474 net629
*1475 net630
*1476 net631
*1477 net632
*1478 net633
*1479 net634
*1480 net635
*1481 net636
*1482 net637
*1483 net638
*1484 net639
*1485 net640
*1486 net641
*1487 net642
*1488 net643
*1489 net644
*1490 net645
*1491 net646
*1492 net647
*1493 net648
*1494 net649
*1495 net650
*1496 net651
*1497 net652
*1498 net653
*1499 net654
*1500 net655
*1501 net656
*1502 net657
*1503 net658
*1504 net659
*1505 net660
*1506 net661
*1507 net662
*1508 net663
*1509 net664
*1510 net665
*1511 net666
*1512 net667
*1513 net668
*1514 net669
*1515 net670
*1516 net671
*1517 nt_branch_mispredict_o
*1518 outstanding_load_wb_i
*1519 outstanding_store_wb_i
*1520 pc_id_i[0]
*1521 pc_id_i[10]
*1522 pc_id_i[11]
*1523 pc_id_i[12]
*1524 pc_id_i[13]
*1525 pc_id_i[14]
*1526 pc_id_i[15]
*1527 pc_id_i[16]
*1528 pc_id_i[17]
*1529 pc_id_i[18]
*1530 pc_id_i[19]
*1531 pc_id_i[1]
*1532 pc_id_i[20]
*1533 pc_id_i[21]
*1534 pc_id_i[22]
*1535 pc_id_i[23]
*1536 pc_id_i[24]
*1537 pc_id_i[25]
*1538 pc_id_i[26]
*1539 pc_id_i[27]
*1540 pc_id_i[28]
*1541 pc_id_i[29]
*1542 pc_id_i[2]
*1543 pc_id_i[30]
*1544 pc_id_i[31]
*1545 pc_id_i[3]
*1546 pc_id_i[4]
*1547 pc_id_i[5]
*1548 pc_id_i[6]
*1549 pc_id_i[7]
*1550 pc_id_i[8]
*1551 pc_id_i[9]
*1552 net672
*1553 net673
*1554 net674
*1555 net675
*1556 net676
*1557 net677
*1558 net678
*1559 net679
*1560 net680
*1561 net681
*1562 net682
*1563 priv_mode_i[0]
*1564 priv_mode_i[1]
*1565 ready_wb_i
*1566 result_ex_i[0]
*1567 result_ex_i[10]
*1568 result_ex_i[11]
*1569 result_ex_i[12]
*1570 result_ex_i[13]
*1571 result_ex_i[14]
*1572 result_ex_i[15]
*1573 result_ex_i[16]
*1574 result_ex_i[17]
*1575 result_ex_i[18]
*1576 result_ex_i[19]
*1577 result_ex_i[1]
*1578 result_ex_i[20]
*1579 result_ex_i[21]
*1580 result_ex_i[22]
*1581 result_ex_i[23]
*1582 result_ex_i[24]
*1583 result_ex_i[25]
*1584 result_ex_i[26]
*1585 result_ex_i[27]
*1586 result_ex_i[28]
*1587 result_ex_i[29]
*1588 result_ex_i[2]
*1589 result_ex_i[30]
*1590 result_ex_i[31]
*1591 result_ex_i[3]
*1592 result_ex_i[4]
*1593 result_ex_i[5]
*1594 result_ex_i[6]
*1595 result_ex_i[7]
*1596 result_ex_i[8]
*1597 result_ex_i[9]
*1598 net683
*1599 net684
*1600 net685
*1601 net686
*1602 net687
*1603 net688
*1604 net689
*1605 net690
*1606 net691
*1607 net692
*1608 rf_rd_a_wb_match_o
*1609 rf_rd_b_wb_match_o
*1610 rf_rdata_a_i[0]
*1611 rf_rdata_a_i[10]
*1612 rf_rdata_a_i[11]
*1613 rf_rdata_a_i[12]
*1614 rf_rdata_a_i[13]
*1615 rf_rdata_a_i[14]
*1616 rf_rdata_a_i[15]
*1617 rf_rdata_a_i[16]
*1618 rf_rdata_a_i[17]
*1619 rf_rdata_a_i[18]
*1620 rf_rdata_a_i[19]
*1621 rf_rdata_a_i[1]
*1622 rf_rdata_a_i[20]
*1623 rf_rdata_a_i[21]
*1624 rf_rdata_a_i[22]
*1625 rf_rdata_a_i[23]
*1626 rf_rdata_a_i[24]
*1627 rf_rdata_a_i[25]
*1628 rf_rdata_a_i[26]
*1629 rf_rdata_a_i[27]
*1630 rf_rdata_a_i[28]
*1631 rf_rdata_a_i[29]
*1632 rf_rdata_a_i[2]
*1633 rf_rdata_a_i[30]
*1634 rf_rdata_a_i[31]
*1635 rf_rdata_a_i[3]
*1636 rf_rdata_a_i[4]
*1637 rf_rdata_a_i[5]
*1638 rf_rdata_a_i[6]
*1639 rf_rdata_a_i[7]
*1640 rf_rdata_a_i[8]
*1641 rf_rdata_a_i[9]
*1642 rf_rdata_b_i[0]
*1643 rf_rdata_b_i[10]
*1644 rf_rdata_b_i[11]
*1645 rf_rdata_b_i[12]
*1646 rf_rdata_b_i[13]
*1647 rf_rdata_b_i[14]
*1648 rf_rdata_b_i[15]
*1649 rf_rdata_b_i[16]
*1650 rf_rdata_b_i[17]
*1651 rf_rdata_b_i[18]
*1652 rf_rdata_b_i[19]
*1653 rf_rdata_b_i[1]
*1654 rf_rdata_b_i[20]
*1655 rf_rdata_b_i[21]
*1656 rf_rdata_b_i[22]
*1657 rf_rdata_b_i[23]
*1658 rf_rdata_b_i[24]
*1659 rf_rdata_b_i[25]
*1660 rf_rdata_b_i[26]
*1661 rf_rdata_b_i[27]
*1662 rf_rdata_b_i[28]
*1663 rf_rdata_b_i[29]
*1664 rf_rdata_b_i[2]
*1665 rf_rdata_b_i[30]
*1666 rf_rdata_b_i[31]
*1667 rf_rdata_b_i[3]
*1668 rf_rdata_b_i[4]
*1669 rf_rdata_b_i[5]
*1670 rf_rdata_b_i[6]
*1671 rf_rdata_b_i[7]
*1672 rf_rdata_b_i[8]
*1673 rf_rdata_b_i[9]
*1674 net693
*1675 net694
*1676 net695
*1677 net696
*1678 net697
*1679 net698
*1680 net699
*1681 rf_waddr_wb_i[0]
*1682 rf_waddr_wb_i[1]
*1683 rf_waddr_wb_i[2]
*1684 rf_waddr_wb_i[3]
*1685 rf_waddr_wb_i[4]
*1686 rf_wdata_fwd_wb_i[0]
*1687 rf_wdata_fwd_wb_i[10]
*1688 rf_wdata_fwd_wb_i[11]
*1689 rf_wdata_fwd_wb_i[12]
*1690 rf_wdata_fwd_wb_i[13]
*1691 rf_wdata_fwd_wb_i[14]
*1692 rf_wdata_fwd_wb_i[15]
*1693 rf_wdata_fwd_wb_i[16]
*1694 rf_wdata_fwd_wb_i[17]
*1695 rf_wdata_fwd_wb_i[18]
*1696 rf_wdata_fwd_wb_i[19]
*1697 rf_wdata_fwd_wb_i[1]
*1698 rf_wdata_fwd_wb_i[20]
*1699 rf_wdata_fwd_wb_i[21]
*1700 rf_wdata_fwd_wb_i[22]
*1701 rf_wdata_fwd_wb_i[23]
*1702 rf_wdata_fwd_wb_i[24]
*1703 rf_wdata_fwd_wb_i[25]
*1704 rf_wdata_fwd_wb_i[26]
*1705 rf_wdata_fwd_wb_i[27]
*1706 rf_wdata_fwd_wb_i[28]
*1707 rf_wdata_fwd_wb_i[29]
*1708 rf_wdata_fwd_wb_i[2]
*1709 rf_wdata_fwd_wb_i[30]
*1710 rf_wdata_fwd_wb_i[31]
*1711 rf_wdata_fwd_wb_i[3]
*1712 rf_wdata_fwd_wb_i[4]
*1713 rf_wdata_fwd_wb_i[5]
*1714 rf_wdata_fwd_wb_i[6]
*1715 rf_wdata_fwd_wb_i[7]
*1716 rf_wdata_fwd_wb_i[8]
*1717 rf_wdata_fwd_wb_i[9]
*1718 net700
*1719 net701
*1720 net702
*1721 net703
*1722 net704
*1723 net705
*1724 net706
*1725 net707
*1726 net708
*1727 net709
*1728 net710
*1729 net711
*1730 net712
*1731 net713
*1732 net714
*1733 net715
*1734 net716
*1735 net717
*1736 net718
*1737 net719
*1738 net720
*1739 net721
*1740 net722
*1741 net723
*1742 net724
*1743 net725
*1744 net726
*1745 net727
*1746 net728
*1747 net729
*1748 net730
*1749 net731
*1750 net732
*1751 rf_write_wb_i
*1752 rst_ni
*1753 trigger_match_i
*1756 net1
*1757 net2
*1758 net3
*1759 net4
*1760 net5
*1761 net6
*1762 net7
*1763 net8
*1764 net9
*1765 net10
*1766 net11
*1767 net12
*1768 net13
*1769 net14
*1770 net15
*1771 net16
*1772 net17
*1773 net18
*1774 net19
*1775 net20
*1776 net21
*1777 net22
*1778 net23
*1779 net24
*1780 net25
*1781 net26
*1782 net27
*1783 net28
*1784 net29
*1785 net30
*1786 net31
*1787 net32
*1788 net33
*1789 net34
*1790 net35
*1791 net36
*1792 net37
*1793 net38
*1794 net39
*1795 net40
*1796 net41
*1797 net42
*1798 net43
*1799 net44
*1800 net45
*1801 net46
*1802 net47
*1803 net48
*1804 net49
*1805 net50
*1806 net51
*1807 net52
*1808 net53
*1809 net54
*1810 net55
*1811 net56
*1812 net57
*1813 net58
*1814 net59
*1815 net60
*1816 net61
*1817 net62
*1818 net63
*1819 net64
*1820 net65
*1821 net66
*1822 net67
*1823 net68
*1824 net69
*1825 net70
*1826 net71
*1827 net72
*1828 net73
*1829 net74
*1830 net75
*1831 net76
*1832 net77
*1833 net78
*1834 net79
*1835 net80
*1836 net81
*1837 net82
*1838 net83
*1839 net84
*1840 net85
*1841 net86
*1842 net87
*1843 net88
*1844 net89
*1845 net90
*1846 net91
*1847 net92
*1848 net93
*1849 net94
*1850 net95
*1851 net96
*1852 net97
*1853 net98
*1854 net99
*1855 net100
*1856 net101
*1857 net102
*1858 net103
*1859 net104
*1860 net105
*1861 net106
*1862 net107
*1863 net108
*1864 net109
*1865 net110
*1866 net111
*1867 net112
*1868 net113
*1869 net114
*1870 net115
*1871 net116
*1872 net117
*1873 net118
*1874 net119
*1875 net120
*1876 net121
*1877 net122
*1878 net123
*1879 net124
*1880 net125
*1881 net126
*1882 net127
*1883 net128
*1884 net129
*1885 net130
*1886 net131
*1887 net132
*1888 net133
*1889 net134
*1890 net135
*1891 net136
*1892 net137
*1893 net138
*1894 net139
*1895 net140
*1896 net141
*1897 net142
*1898 net143
*1899 net144
*1900 net145
*1901 net146
*1902 net147
*1903 net148
*1904 net149
*1905 net150
*1906 net151
*1907 net152
*1908 net153
*1909 net154
*1910 net155
*1911 net156
*1912 net157
*1913 net158
*1914 net159
*1915 net160
*1916 net161
*1917 net162
*1918 net163
*1919 net164
*1920 net165
*1921 net166
*1922 net167
*1923 net168
*1924 net169
*1925 net170
*1926 net171
*1927 net172
*1928 net173
*1929 net174
*1930 net175
*1931 net176
*1932 net177
*1933 net178
*1934 net179
*1935 net180
*1936 net181
*1937 net182
*1938 net183
*1939 net184
*1940 net185
*1941 net186
*1942 net187
*1943 net188
*1944 net189
*1945 net190
*1946 net191
*1947 net192
*1948 net193
*1949 net194
*1950 net195
*1951 net196
*1952 net197
*1953 net198
*1954 net199
*1955 net200